LAMMPS (29 Sep 2021 - Update 2)

units	metal
atom_style atomic
boundary    p p p
newton off
#neighbor 1.0 bin
neigh_modify delay 0 every 1 check yes
#neigh_modify once no every 1 delay 0 check yes

box tilt large
read_data tob11_ref_deepmd.data
Reading data file ...
  triclinic box = (0.0000000 0.0000000 0.0000000) to (6.8037000 6.1848150 22.405446) with tilt (2.6646871 0.29402869 -0.26981789)
  reading atoms ...
  88 atoms

pair_style	nequip
pair_coeff	* * tob11_l3-deployed.pth Ca H O Si
mass            1 40.079800
mass            4 28.08500
mass            3 15.9994
mass            2 1.00794

#kspace_style    ewald 1.0e-6

velocity all create 300 4928459 rot yes dist gaussian #温度初始化
timestep 0.001

thermo 100
thermo_style  custom step temp press etotal lx ly lz xy xz yz pxx pyy pzz

min_style cg
minimize 1.0e-15 1.0e-15 100000 100000
  update every 1 steps, delay 0 steps, check yes
Step Temp Press TotEng Lx Ly Lz Xy Xz Yz Pxx Pyy Pzz
0          300    20949.274   -568.11947       6.8037     6.184815    22.405446    2.6646871   0.29402869  -0.26981789    5128.4852    29061.648    28657.688
Loop time of 105.253 on 1 procs for 204 steps with 88 atoms

Minimization stats:
  Stopping criterion = energy tolerance
  Energy initial, next-to-last, final =
  Force two-norm initial, final = 16.218635 0.078211970
  Force max component initial, final = 3.7823689 0.022082653
  Final line search alpha, max atom move = 1.0000000 0.022082653
  Iterations, force evaluations = 204 438

fix 4 all nve
fix 5 all langevin 300.0 300.0 0.1 12345

run 5000
Step Temp Press TotEng Lx Ly Lz Xy Xz Yz Pxx Pyy Pzz
204          300    11076.778   -574.61783       6.8037     6.184815    22.405446    2.6646871   0.29402869  -0.26981789    4922.0089    15700.394    12607.931
Averages over the last 26 of 52 rows, steps 2800 to 5204:
Temp Press TotEng Lx Ly Lz Xy Xz Yz Pxx Pyy Pzz
307.504 14649.2 -571.207 6.8037 6.18482 22.4054 2.66469 0.294029 -0.269818 10979.9 15526.6 17441
Loop time of 1134.81 on 1 procs for 5000 steps with 88 atoms

unfix 4
unfix 5

#fix 1 all npt temp 300.0 300.0 10.0 iso 0.0 0.0 1000.0
#fix 1 all box/relax tri 0.0 vmax 1.0
fix 1 all npt temp 300 300 0.1 iso 1.01325 1.01325 1.0

run 10000
Step Temp Press TotEng Lx Ly Lz Xy Xz Yz Pxx Pyy Pzz
5204    359.99222    15225.835    -570.9906       6.8037     6.184815    22.405446    2.6646871   0.29402869  -0.26981789    15745.415    18064.221    11867.868
Averages over the last 51 of 102 rows, steps 10300 to 15204:
Temp Press TotEng Lx Ly Lz Xy Xz Yz Pxx Pyy Pzz
306.864 613.186 -571.286 6.84791 6.22501 22.551 2.682 0.295939 -0.271571 -593.023 -827.398 3259.98
Loop time of 2229.95 on 1 procs for 10000 steps with 88 atoms

write_dump all custom output-tob11_nequip.dump id type x y z fx fy fz
