LAMMPS (29 Sep 2021 - Update 2)

units	metal
dimension 3
atom_style atomic
boundary        p p p
newton off

box tilt large
read_data tob14_ref_deepmd.data
Reading data file ...
  triclinic box = (0.0000000 0.0000000 0.0000000) to (6.9541015 6.3530143 28.422936) with tilt (2.6303553 0.54033995 1.3928068)
  reading atoms ...
  104 atoms

#special_bonds lj/coul 0.0 0.0 1.0
#atom_modify sort 0 0.0

pair_style	nequip
pair_coeff	* * tob14_l3-deployed.pth Ca Si O H
mass            1 40.079800
mass            2 28.08500
mass            3 15.9994
mass            4 1.00794

timestep 0.001

velocity all create 300 4928459 rot yes dist gaussian #温度初始化
min_style cg
minimize 1.0e-15 1.0e-15 100000 100000
  update every 1 steps, delay 0 steps, check yes
Step Temp E_pair E_mol TotEng Press
0          300   -656.06885            0   -652.07471   -42317.277
Loop time of 108.992 on 1 procs for 232 steps with 104 atoms

Minimization stats:
  Stopping criterion = energy tolerance
  Energy initial, next-to-last, final =
  Force two-norm initial, final = 18.141591 0.11125906
  Force max component initial, final = 3.8508685 0.028448554
  Final line search alpha, max atom move = 0.30488414 0.0086735127
  Iterations, force evaluations = 232 466

thermo 100
#thermo_style  custom step temp etotal cella cellb cellc cellalpha cellbeta cellgamma pxx pyy pzz
thermo_style  custom step temp press etotal lx ly lz xy yz xz pxx pyy pzz

#fix 1 all nvt temp 300.0 300.0 0.1
fix 1 all npt temp 300.0 300.0 0.1 aniso 1.01325 1.01325 1.0

run 5000
Step Temp Press TotEng Lx Ly Lz Xy Yz Xz Pxx Pyy Pzz
232          300   -32314.805   -659.74506    6.9541015    6.3530143    28.422936    2.6303553    1.3928068   0.54033995   -34136.574   -41738.492   -21069.348
Averages over the last 26 of 52 rows, steps 2800 to 5232:
Temp Press TotEng Lx Ly Lz Xy Yz Xz Pxx Pyy Pzz
296.489 593.874 -656.913 6.795 6.1293 28.2632 2.53773 1.38498 0.537303 -772.61 259.037 2295.2
Loop time of 1169.82 on 1 procs for 5000 steps with 104 atoms

write_dump all custom output-tob14_ref.dump id type x y z fx fy fz

compute         rdf_nequip all rdf 400 1 3 1 3 1 3
fix             2 all ave/time 10 10 100 c_rdf_nequip[*] file tob14_Ref.rdf mode vector

run 5000
  update every 1 steps, delay 10 steps, check yes
Step Temp Press TotEng Lx Ly Lz Xy Yz Xz Pxx Pyy Pzz
5232    302.26307   -2124.6436   -656.79226     6.827556    6.1043986    28.230385    2.5274202    1.3833713   0.53667943    1737.5041    3145.7635   -11257.198
Averages over the last 26 of 52 rows, steps 7800 to 10232:
Temp Press TotEng Lx Ly Lz Xy Yz Xz Pxx Pyy Pzz
299.419 1086.1 -656.907 6.80055 6.13793 28.0821 2.5413 1.3761 0.53386 1498.72 995.659 763.924
Loop time of 1177.08 on 1 procs for 5000 steps with 104 atoms
