LAMMPS (29 Sep 2021 - Update 2)

units	metal
dimension 3
atom_style atomic
boundary        p p p
newton off

box tilt large
read_data tob11_ref_deepmd.data
Reading data file ...
  triclinic box = (0.0000000 0.0000000 0.0000000) to (6.8037000 6.1848150 22.405446) with tilt (2.6646871 0.29402869 -0.26981789)
  reading atoms ...
  88 atoms

#special_bonds lj/coul 0.0 0.0 1.0
#atom_modify sort 0 0.0

pair_style	nequip
pair_coeff	* * tob11_l3-deployed.pth Ca H O Si
mass            1 40.079800
mass            4 28.08500
mass            3 15.9994
mass            2 1.00794

timestep 0.001

velocity all create 300 4928459 rot yes dist gaussian #温度初始化
min_style cg
minimize 1.0e-15 1.0e-15 100000 100000
  update every 1 steps, delay 0 steps, check yes
Step Temp E_pair E_mol TotEng Press
0          300   -571.49316            0   -568.11947    20949.274
Loop time of 98.4315 on 1 procs for 206 steps with 88 atoms

Minimization stats:
  Stopping criterion = energy tolerance
  Energy initial, next-to-last, final =
  Force two-norm initial, final = 16.218635 0.082336946
  Force max component initial, final = 3.7823689 0.020527262
  Final line search alpha, max atom move = 1.0000000 0.020527262
  Iterations, force evaluations = 206 412

thermo 100
#thermo_style  custom step temp etotal cella cellb cellc cellalpha cellbeta cellgamma pxx pyy pzz
thermo_style  custom step temp press etotal lx ly lz xy yz xz pxx pyy pzz

fix 1 all nvt temp 300.0 300.0 0.1

run 5000
Step Temp Press TotEng Lx Ly Lz Xy Yz Xz Pxx Pyy Pzz
206          300    11035.794   -574.61783       6.8037     6.184815    22.405446    2.6646871  -0.26981789   0.29402869    4847.4669        15639    12620.914
Averages over the last 26 of 52 rows, steps 2800 to 5206:
Temp Press TotEng Lx Ly Lz Xy Yz Xz Pxx Pyy Pzz
301.896 13221.4 -571.286 6.8037 6.18482 22.4054 2.66469 -0.269818 0.294029 9964.53 14268.8 15431
Loop time of 1133.23 on 1 procs for 5000 steps with 88 atoms

write_dump all custom output-tob11_ref.dump id type x y z fx fy fz

compute         rdf_nequip all rdf 400 1 3 1 3 1 3
fix             2 all ave/time 10 10 100 c_rdf_nequip[*] file tob11_Ref.rdf mode vector

run 5000
  update every 1 steps, delay 10 steps, check yes
Step Temp Press TotEng Lx Ly Lz Xy Yz Xz Pxx Pyy Pzz
5206    305.18256    6204.1436   -571.26908       6.8037     6.184815    22.405446    2.6646871  -0.26981789   0.29402869    5395.4425    2012.9917    11203.997
Averages over the last 26 of 52 rows, steps 7800 to 10206:
Temp Press TotEng Lx Ly Lz Xy Yz Xz Pxx Pyy Pzz
305.905 12869.4 -571.073 6.8037 6.18482 22.4054 2.66469 -0.269818 0.294029 8576.33 12734.9 17297
Loop time of 1132.01 on 1 procs for 5000 steps with 88 atoms
