LAMMPS (2 Aug 2023 - Update 1)
Loaded 1 plugins from /home/zkm/anaconda3/envs/deepmd/lib/deepmd_lmp

units	metal
dimension 3
atom_style atomic
boundary        p p p
neighbor 2.0 bin
neigh_modify delay 5 every 1
#newton off

box tilt large

The 'box' command has been removed and will be ignored

read_data tob9_ref_deepmd.data
Reading data file ...
  triclinic box = (0 0 0) to (11.114968 7.4513556 9.3746986) with tilt (-0.17419075 -0.15353827 -1.924862)
  reading atoms ...
  62 atoms

pair_style	deepmd tob9_deepmd_compress.pb
Summary of lammps deepmd module ...
  >>> Info of deepmd-kit:
  installed to:       /home/zkm/anaconda3/envs/deepmd
  source:             v2.2.7
  source branch:       HEAD
  source commit:      839f4fe7
  source commit at:   2023-10-27 21:10:24 +0800
  surpport model ver.:1.1
  build variant:      cuda
  build with tf inc:  /home/zkm/anaconda3/envs/deepmd/include;/home/zkm/anaconda3/envs/deepmd/include
  build with tf lib:  /home/zkm/anaconda3/envs/deepmd/lib/libtensorflow_cc.so
  set tf intra_op_parallelism_threads: 0
  set tf inter_op_parallelism_threads: 0
  >>> Info of lammps module:
  use deepmd-kit at:  /home/zkm/anaconda3/envs/deepmdpair_coeff	* * Ca H O Si
mass            1 40.079800
mass            4 28.08500
mass            3 15.9994
mass            2 1.00794

#special_bonds lj/coul 0.0 0.0 1.0
#atom_modify sort 0 0.0

timestep 0.001

velocity all create 300 4928459 rot yes dist gaussian #温度初始化
min_style cg
minimize 1.0e-15 1.0e-15 100000 100000

CITE-CITE-CITE-CITE-CITE-CITE-CITE-CITE-CITE-CITE-CITE-CITE-CITE

Your simulation uses code contributions which should be cited:

- USER-DEEPMD package:

@article{Wang_ComputPhysCommun_2018_v228_p178,
  author = {Wang, Han and Zhang, Linfeng and Han, Jiequn and E, Weinan},
  doi = {10.1016/j.cpc.2018.03.016},
  url = {https://doi.org/10.1016/j.cpc.2018.03.016},
  year = 2018,
  month = {jul},
  publisher = {Elsevier {BV}},
  volume = 228,
  journal = {Comput. Phys. Commun.},
  title = {{DeePMD-kit: A deep learning package for many-body potential energy representation and molecular dynamics}},
  pages = {178--184}
}
@misc{Zeng_JChemPhys_2023_v159_p054801,
  title  = {{DeePMD-kit v2: A software package for deep potential models}},
  author =   {Jinzhe Zeng and Duo Zhang and Denghui Lu and Pinghui Mo and Zeyu Li
         and Yixiao Chen and Mari{\'a}n Rynik and Li'ang Huang and Ziyao Li and
         Shaochen Shi and Yingze Wang and Haotian Ye and Ping Tuo and Jiabin
         Yang and Ye Ding and Yifan Li and Davide Tisi and Qiyu Zeng and Han
         Bao and Yu Xia and Jiameng Huang and Koki Muraoka and Yibo Wang and
         Junhan Chang and Fengbo Yuan and Sigbj{\o}rn L{\o}land Bore and Chun
         Cai and Yinnian Lin and Bo Wang and Jiayan Xu and Jia-Xin Zhu and
         Chenxing Luo and Yuzhi Zhang and Rhys E A Goodall and Wenshuo Liang
         and Anurag Kumar Singh and Sikai Yao and Jingchao Zhang and Renata
         Wentzcovitch and Jiequn Han and Jie Liu and Weile Jia and Darrin M
         York and Weinan E and Roberto Car and Linfeng Zhang and Han Wang},
  journal =  {J. Chem. Phys.},
  volume =   159,
  issue =    5,
  year =    2023,
  pages  =   054801,
  doi =      {10.1063/5.0155600},
}

CITE-CITE-CITE-CITE-CITE-CITE-CITE-CITE-CITE-CITE-CITE-CITE-CITE

Generated 0 of 6 mixed pair_coeff terms from geometric mixing rule
Step          Temp          E_pair         E_mol          TotEng         Press
0   300           -451.17407      0             -448.8086       20224.121
Loop time of 2.63791 on 1 procs for 204 steps with 62 atoms

Minimization stats:
  Stopping criterion = energy tolerance
  Energy initial, next-to-last, final =
  Force two-norm initial, final = 21.373936 4.3506579e-06
  Force max component initial, final = 7.3208246 9.0155169e-07
  Final line search alpha, max atom move = 1 9.0155169e-07
  Iterations, force evaluations = 204 407

thermo 100
#thermo_style  custom step temp etotal cella cellb cellc cellalpha cellbeta cellgamma pxx pyy pzz
thermo_style  custom step temp press etotal lx ly lz xy xz yz pxx pyy pzz

#fix 4 all nve
#fix 5 all langevin 300.0 300.0 0.1 12345
#run 50000

#unfix 4
#unfix 5

fix 1 all npt temp 300 300 0.1 tri 1.0 1.0 1.0

run 10000
Generated 0 of 6 mixed pair_coeff terms from geometric mixing rule
Step          Temp          Press          TotEng           Lx             Ly             Lz             Xy             Xz             Yz            Pxx            Pyy            Pzz
204   300            1591.9575     -454.27354      11.114968      7.4513556      9.3746986     -0.17419075    -0.15353827    -1.924862       3450.4578      1090.2699      235.14486
Averages over the last 51 of 102 rows, steps 5300 to 10204:
Temp Press TotEng Lx Ly Lz Xy Xz Yz Pxx Pyy Pzz
296.047 -566.393 -453.154 11.1681 7.40566 9.39601 0.00821048 -1.68782 -1.86399 -1348.44 -275.324 -75.4187
Loop time of 62.0583 on 1 procs for 10000 steps with 62 atoms

write_dump all custom output-tob9_deepmd.dump id type x y z fx fy fz
