LAMMPS (29 Sep 2021 - Update 2)

units	metal
dimension 3
atom_style atomic
boundary        p p p
newton off

box tilt large
read_data tob9_ref_deepmd.data
Reading data file ...
  triclinic box = (0.0000000 0.0000000 0.0000000) to (11.114968 7.4513556 9.3746986) with tilt (-0.17419075 -0.15353827 -1.9248620)
  reading atoms ...
  62 atoms

#special_bonds lj/coul 0.0 0.0 1.0
#atom_modify sort 0 0.0

pair_style	nequip
pair_coeff	* * tob9_l3-deployed.pth Ca H O Si
mass            1 40.079800
mass            4 28.08500
mass            3 15.9994
mass            2 1.00794

timestep 0.001

velocity all create 300 4928459 rot yes dist gaussian #温度初始化
min_style cg
minimize 1.0e-15 1.0e-15 100000 100000
  update every 1 steps, delay 0 steps, check yes
Step Temp E_pair E_mol TotEng Press
0          300   -451.11508            0   -448.74962    23229.623
Loop time of 19.9634 on 1 procs for 42 steps with 62 atoms

Minimization stats:
  Stopping criterion = energy tolerance
  Energy initial, next-to-last, final =
  Force two-norm initial, final = 21.368531 0.060878371
  Force max component initial, final = 7.2417865 0.014479048
  Final line search alpha, max atom move = 1.0000000 0.014479048
  Iterations, force evaluations = 42 83

thermo 100
#thermo_style  custom step temp etotal cella cellb cellc cellalpha cellbeta cellgamma pxx pyy pzz
thermo_style  custom step temp press etotal lx ly lz xy yz xz pxx pyy pzz

fix 1 all npt temp 300.0 300.0 0.1 aniso 1.01325 1.01325 1.0

run 5000
Step Temp Press TotEng Lx Ly Lz Xy Yz Xz Pxx Pyy Pzz
42          300    3962.2354   -454.09688    11.114968    7.4513556    9.3746986  -0.17419075    -1.924862  -0.15353827    11400.654   -7130.6313    7616.6835
Averages over the last 26 of 52 rows, steps 2600 to 5042:
Temp Press TotEng Lx Ly Lz Xy Yz Xz Pxx Pyy Pzz
308.685 631.089 -451.538 11.2936 7.34407 9.48652 -0.171683 -1.94782 -0.15537 -1799.5 1971.21 1721.55
Loop time of 859.118 on 1 procs for 5000 steps with 62 atoms

write_dump all custom output-tob9_ref.dump id type x y z fx fy fz

compute         rdf_nequip all rdf 400 1 3 1 3 1 3
fix             2 all ave/time 10 10 100 c_rdf_nequip[*] file tob9_Ref.rdf mode vector

run 5000
  update every 1 steps, delay 10 steps, check yes
Step Temp Press TotEng Lx Ly Lz Xy Yz Xz Pxx Pyy Pzz
5042    286.43756   -2366.3988   -451.28606    11.324237    7.3025825    9.5543423  -0.17071288   -1.9617473  -0.15648047   -13589.038    7134.4783   -644.63646
Averages over the last 26 of 52 rows, steps 7600 to 10042:
Temp Press TotEng Lx Ly Lz Xy Yz Xz Pxx Pyy Pzz
305.747 -2911.77 -451.69 11.2998 7.35574 9.49609 -0.171955 -1.94979 -0.155526 -2340.54 -3201.27 -3193.52
Loop time of 858.438 on 1 procs for 5000 steps with 62 atoms
