LAMMPS (29 Sep 2021 - Update 2)

units	metal
dimension 3
atom_style atomic
boundary        p p p
newton off

box tilt large
read_data tob9_ref_deepmd.data
Reading data file ...
  triclinic box = (0.0000000 0.0000000 0.0000000) to (11.114968 7.4513556 9.3746986) with tilt (-0.17419075 -0.15353827 -1.9248620)
  reading atoms ...
  62 atoms

#special_bonds lj/coul 0.0 0.0 1.0
#atom_modify sort 0 0.0

pair_style	nequip
pair_coeff	* * tob9_l3-deployed.pth Ca H O Si
mass            1 40.079800
mass            4 28.08500
mass            3 15.9994
mass            2 1.00794

timestep 0.001

velocity all create 300 4928459 rot yes dist gaussian #温度初始化
min_style cg
minimize 1.0e-15 1.0e-15 100000 100000
  update every 1 steps, delay 0 steps, check yes
Step Temp E_pair E_mol TotEng Press
0          300   -451.11508            0   -448.74962    23229.601
Loop time of 24.2955 on 1 procs for 45 steps with 62 atoms

Minimization stats:
  Stopping criterion = energy tolerance
  Energy initial, next-to-last, final =
  Force two-norm initial, final = 21.368530 0.047872076
  Force max component initial, final = 7.2417865 0.010457915
  Final line search alpha, max atom move = 0.0019531250 2.0425616e-05
  Iterations, force evaluations = 45 107

thermo 100
#thermo_style  custom step temp etotal cella cellb cellc cellalpha cellbeta cellgamma pxx pyy pzz
thermo_style  custom step temp press etotal lx ly lz xy yz xz pxx pyy pzz

fix 1 all nvt temp 300.0 300.0 0.1

run 10000
Step Temp Press TotEng Lx Ly Lz Xy Yz Xz Pxx Pyy Pzz
45          300    3879.8654   -454.09716    11.114968    7.4513556    9.3746986  -0.17419075    -1.924862  -0.15353827    11366.185    -7265.035    7538.4465
Averages over the last 51 of 102 rows, steps 5100 to 10045:
Temp Press TotEng Lx Ly Lz Xy Yz Xz Pxx Pyy Pzz
290.402 7260.41 -451.784 11.115 7.45136 9.3747 -0.174191 -1.92486 -0.153538 19602.5 -8912.69 11091.4
Loop time of 1668.15 on 1 procs for 10000 steps with 62 atoms

write_dump all custom output-tob14_ref.dump id type x y z fx fy fz

compute         rdf_nequip all rdf 400 4 3 4 3 4 3
fix             2 all ave/time 10 10 100 c_rdf_nequip[*] file tob9_Ref.rdf mode vector

run 5000
  update every 1 steps, delay 10 steps, check yes
Step Temp Press TotEng Lx Ly Lz Xy Yz Xz Pxx Pyy Pzz
10045    299.93467    8859.4403   -452.10408    11.114968    7.4513556    9.3746986  -0.17419075    -1.924862  -0.15353827     17791.14   -10139.091    18926.273
Averages over the last 26 of 52 rows, steps 12600 to 15045:
Temp Press TotEng Lx Ly Lz Xy Yz Xz Pxx Pyy Pzz
309.424 7522.15 -451.524 11.115 7.45136 9.3747 -0.174191 -1.92486 -0.153538 19992.9 -9425.12 11998.7
Loop time of 835.005 on 1 procs for 5000 steps with 62 atoms
