LAMMPS (29 Sep 2021 - Update 2)
# Compute elastic constant tensor for a crystal at finite temperature
#
# WARNING: This script attempts to measure small differences in
# statistical averages generated by finite temperature MD simulations.
# This creates many more opportunities for errors to occur, compared
# to the zero temperature version provided in examples/ELASTIC.
# Hence, it is always a good idea to start with the zero temperature
# calculation, before attempting to use this script.
#
# Written by Aidan Thompson (Sandia, athomps@sandia.gov)
#
#  This script uses the following three include files.
#
#   init.mod      (must be modified for different crystal structures)
# 	       	  Define units, MD parameters, deformation parameters,
#		  and initial configuration of the atoms and simulation cell.
#
#
#   potential.mod    (must be modified for different pair styles)
# 		     Define pair style and other attributes
#		     not stored in restart file
#
#
#   displace.mod    (displace.mod should not need to be modified)
# 		    Perform positive and negative box displacements
# 		    It uses the resultant changes
#		    in stress to compute one
# 		    row of the elastic stiffness tensor
#
#		    Inputs variables:
#		    	   dir = the Voigt deformation component
#		    		    (1,2,3,4,5,6)
#		    Global constants:
#       	    	   up = the deformation magnitude (strain units)
#       		   cfac = conversion from LAMMPS pressure units to
#               	   output units for elastic constants
#
#
#  To run this on a different system, it should only be necessary to
#  modify the files init.mod and potential.mod. In order to calculate
#  the elastic constants correctly, care must be taken to specify
#  the correct units in init.mod (units, cfac and cunits). It is also
#  important to verify that the MD sampling of stress components
#  is generating accurate statistical averages.
#  One indication of this is that the elastic constants are insensitive
#  check for finite size effects.
#

# include init.mod

# NOTE: This script can be modified for different atomic structures,
# units, etc. See in.elastic for more info.
#

# Define the finite deformation size. Try several values of this
# variable to verify that results do not depend on it.
variable up equal 2.0e-2

# real units, elastic constants in GPa
units		metal
atom_style atomic
variable cfac equal 1.0e-4
variable cunits string GPa

# Define MD parameters
variable nevery equal 10                  # sampling interval
variable nrepeat equal 10                 # number of samples
variable nfreq equal 10*10
variable nthermo equal 100
variable nequil equal 10*100
variable nrun equal 3*100
variable temp equal 300                   # temperature of initial sample
variable timestep equal 0.0001             # timestep
variable adiabatic equal 2                # adiabatic (1) or isothermal (2)
variable tdamp equal 0.01                 # time constant for thermostat
variable seed equal 123457                # seed for thermostat

# generate the box and atom positions using a diamond lattice
variable a equal 5.431

boundary	p p p
newton off

box tilt large
read_data tob14_ref_deepmd.data
Reading data file ...
  triclinic box = (0.0000000 0.0000000 0.0000000) to (6.9541015 6.3530143 28.422936) with tilt (2.6303553 0.54033995 1.3928068)
  reading atoms ...
  104 atoms

pair_style	nequip
pair_coeff	* * tob14_l3-deployed.pth Ca Si O H
mass            1 40.079800
mass            2 28.08500
mass            3 15.9994
mass            4 1.00794

change_box all triclinic
Changing box ...
  triclinic box = (0.0000000 0.0000000 0.0000000) to (6.9541015 6.3530143 28.422936) with tilt (2.6303553 0.54033995 1.3928068)

velocity	all create 300 87287

thermo 100
min_style cg
minimize 1.0e-15 1.0e-15 100000 100000 #设置能量最小化
  update every 1 steps, delay 0 steps, check yes
Step Temp E_pair E_mol TotEng Press
0          300   -656.06885            0   -652.07471   -42317.276
Loop time of 115.97 on 1 procs for 236 steps with 104 atoms

Minimization stats:
  Stopping criterion = energy tolerance
  Energy initial, next-to-last, final =
  Force two-norm initial, final = 18.141591 0.078803587
  Force max component initial, final = 3.8508685 0.018591452
  Final line search alpha, max atom move = 1.0000000 0.018591452
  Iterations, force evaluations = 236 476

thermo_style  custom step temp press etotal lx ly lz xy yz xz pxx pyy pzz

#timestep 0.0001

#fix 456 all nve
#fix 567 all langevin 300.0 300.0 0.01 12345

#run 5000

#unfix 456
#unfix 567
fix 123 all npt temp 300 300 0.01 iso 1.0 1.0 0.1
run 10000
Step Temp Press TotEng Lx Ly Lz Xy Yz Xz Pxx Pyy Pzz
236          300   -32349.571   -659.74634    6.9541015    6.3530143    28.422936    2.6303553    1.3928068   0.54033995   -33754.051   -41994.351   -21300.312
Averages over the last 51 of 102 rows, steps 5300 to 10236:
Temp Press TotEng Lx Ly Lz Xy Yz Xz Pxx Pyy Pzz
299.908 30.7452 -657.017 6.78455 6.19812 27.73 2.56622 1.35885 0.527166 -1205.01 -2943.03 4240.27
Loop time of 2465.07 on 1 procs for 10000 steps with 104 atoms

unfix 123

# Compute initial state

variable thermostat equal 0
include potential.mod
# NOTE: This script can be modified for different pair styles
# See in.elastic for more info.

# we must undefine any fix ave/* fix before using reset_timestep
if "$(is_defined(fix,avp))" then "unfix avp"
reset_timestep 0

newton off

# Choose potential
# pair_style	sw
# pair_coeff * * Si.sw Si
pair_style	nequip
pair_coeff	* * tob14_l3-deployed.pth Ca Si O H

atom_modify sort 0 0.0
#kspace_style	ewald 1.0e-6# Setup neighbor style

neighbor 2.0 bin
neigh_modify once no every 1 delay 0 check yes

# Setup output

fix avp all ave/time  10 10 100 c_thermo_press mode vector

#min_style cg
#minimize 1.0e-15 1.0e-15 100000 100000 #设置能量最小化

thermo		100
thermo_style custom step temp pe press f_avp[1] f_avp[2] f_avp[3] f_avp[4] f_avp[5] f_avp[6]
thermo_modify norm no

# Setup MD

timestep 0.0001
fix 4 all nve

run 1000
Step Temp PotEng Press f_avp[1] f_avp[2] f_avp[3] f_avp[4] f_avp[5] f_avp[6]
0     319.5406   -661.50641    4445.6638            0            0            0            0            0            0
Averages over the last 6 of 11 rows, steps 500 to 1000:
Temp PotEng Press f_avp[1] f_avp[2] f_avp[3] f_avp[4] f_avp[5] f_avp[6]
305.214 -661.316 3083.58 7595.28 5441.74 4313.76 10223.7 4514.67 -4594.14
Loop time of 251.588 on 1 procs for 1000 steps with 104 atoms

variable thermostat equal 1

print 1
1

include potential.mod
# NOTE: This script can be modified for different pair styles
# See in.elastic for more info.

# we must undefine any fix ave/* fix before using reset_timestep
if "$(is_defined(fix,avp))" then "unfix avp"
unfix avp
reset_timestep 0

newton off

# Choose potential
# pair_style	sw
# pair_coeff * * Si.sw Si
pair_style	nequip
pair_coeff	* * tob14_l3-deployed.pth Ca Si O H

atom_modify sort 0 0.0
#kspace_style	ewald 1.0e-6# Setup neighbor style

neighbor 2.0 bin
neigh_modify once no every 1 delay 0 check yes

# Setup output

fix avp all ave/time  10 10 100 c_thermo_press mode vector

#min_style cg
#minimize 1.0e-15 1.0e-15 100000 100000 #设置能量最小化

thermo		100
thermo_style custom step temp pe press f_avp[1] f_avp[2] f_avp[3] f_avp[4] f_avp[5] f_avp[6]
thermo_modify norm no

# Setup MD

timestep 0.0001
fix 4 all nve
fix 5 all langevin 300 300 0.01 123457

run 300
Step Temp PotEng Press f_avp[1] f_avp[2] f_avp[3] f_avp[4] f_avp[5] f_avp[6]
0    310.81605    -661.3902    8596.5427            0            0            0            0            0            0
Loop time of 79.3085 on 1 procs for 300 steps with 104 atoms

variable pxx0 equal f_avp[1]
variable pyy0 equal f_avp[2]
variable pzz0 equal f_avp[3]
variable pxy0 equal f_avp[4]
variable pxz0 equal f_avp[5]
variable pyz0 equal f_avp[6]

variable tmp equal lx
variable lx0 equal 6.76389504608471
variable tmp equal ly
variable ly0 equal 6.17924860419115
variable tmp equal lz
variable lz0 equal 27.645520259248

# These formulas define the derivatives w.r.t. strain components
# Constants uses $, variables use v_
variable d1 equal -(v_pxx1-6829.75652279831)/(v_delta/v_len0)*0.0001
variable d2 equal -(v_pyy1-2806.44918226103)/(v_delta/v_len0)*0.0001
variable d3 equal -(v_pzz1-10748.1833635702)/(v_delta/v_len0)*0.0001
variable d4 equal -(v_pyz1--3116.84444132603)/(v_delta/v_len0)*0.0001
variable d5 equal -(v_pxz1-6977.06121040075)/(v_delta/v_len0)*0.0001
variable d6 equal -(v_pxy1-6090.32527399548)/(v_delta/v_len0)*0.0001

# Write restart
write_restart restart.equil
System init for write_restart ...

# uxx Perturbation

variable dir equal 1
include displace.mod
# NOTE: This script should not need to be
# modified. See in.elastic for more info.
#
# Find which reference length to use

variable len0 equal 6.76389504608471

# Reset box and simulation parameters

clear
box tilt large
read_restart restart.equil
Reading restart file ...
  restart file = 29 Sep 2021, LAMMPS = 29 Sep 2021
  restoring atom style atomic from restart
  triclinic box = (0.095103223 0.086882847 0.38870770) to (6.8589983 6.2661315 28.034228) with tilt (2.5584106 0.52556074 1.3547112)
  pair style nequip stores no restart info
  104 atoms
  read_restart CPU = 0.000 seconds
include potential.mod
# NOTE: This script can be modified for different pair styles
# See in.elastic for more info.

# we must undefine any fix ave/* fix before using reset_timestep
if "$(is_defined(fix,avp))" then "unfix avp"
reset_timestep 0

newton off

# Choose potential
# pair_style	sw
# pair_coeff * * Si.sw Si
pair_style	nequip
pair_coeff	* * tob14_l3-deployed.pth Ca Si O H

atom_modify sort 0 0.0
#kspace_style	ewald 1.0e-6# Setup neighbor style

neighbor 2.0 bin
neigh_modify once no every 1 delay 0 check yes

# Setup output

fix avp all ave/time  10 10 100 c_thermo_press mode vector

#min_style cg
#minimize 1.0e-15 1.0e-15 100000 100000 #设置能量最小化

thermo		100
thermo_style custom step temp pe press f_avp[1] f_avp[2] f_avp[3] f_avp[4] f_avp[5] f_avp[6]
thermo_modify norm no

# Setup MD

timestep 0.0001
fix 4 all nve
fix 5 all langevin 300 300 0.01 123457

# Negative deformation

variable delta equal -0.02*6.76389504608471
variable deltaxy equal -0.02*xy
variable deltaxz equal -0.02*xz
variable deltayz equal -0.02*yz
change_box all x delta 0 -0.135277900921694 xy delta -0.051168211655824 xz delta -0.0105112148047561 remap units box
Changing box ...
  triclinic box = (0.095103223 0.086882847 0.38870770) to (6.7237204 6.2661315 28.034228) with tilt (2.5584106 0.52556074 1.3547112)
  triclinic box = (0.095103223 0.086882847 0.38870770) to (6.7237204 6.2661315 28.034228) with tilt (2.5072424 0.52556074 1.3547112)
  triclinic box = (0.095103223 0.086882847 0.38870770) to (6.7237204 6.2661315 28.034228) with tilt (2.5072424 0.51504953 1.3547112)

# Run MD

run 1000
  update every 1 steps, delay 0 steps, check yes
Step Temp PotEng Press f_avp[1] f_avp[2] f_avp[3] f_avp[4] f_avp[5] f_avp[6]
0    276.56993   -660.72809    35216.729            0            0            0            0            0            0
Averages over the last 6 of 11 rows, steps 500 to 1000:
Temp PotEng Press f_avp[1] f_avp[2] f_avp[3] f_avp[4] f_avp[5] f_avp[6]
314.524 -660.439 23920.1 28413.3 14333.6 24051 6896.02 7202.22 -3759.26
Loop time of 256.783 on 1 procs for 1000 steps with 104 atoms

include potential.mod
# NOTE: This script can be modified for different pair styles
# See in.elastic for more info.

# we must undefine any fix ave/* fix before using reset_timestep
if "$(is_defined(fix,avp))" then "unfix avp"
unfix avp
reset_timestep 0

newton off

# Choose potential
# pair_style	sw
# pair_coeff * * Si.sw Si
pair_style	nequip
pair_coeff	* * tob14_l3-deployed.pth Ca Si O H

atom_modify sort 0 0.0
#kspace_style	ewald 1.0e-6# Setup neighbor style

neighbor 2.0 bin
neigh_modify once no every 1 delay 0 check yes

# Setup output

fix avp all ave/time  10 10 100 c_thermo_press mode vector

#min_style cg
#minimize 1.0e-15 1.0e-15 100000 100000 #设置能量最小化

thermo		100
thermo_style custom step temp pe press f_avp[1] f_avp[2] f_avp[3] f_avp[4] f_avp[5] f_avp[6]
thermo_modify norm no

# Setup MD

timestep 0.0001
fix 4 all nve
fix 5 all langevin 300 300 0.01 123457

run 300
Step Temp PotEng Press f_avp[1] f_avp[2] f_avp[3] f_avp[4] f_avp[5] f_avp[6]
0    320.07553   -660.62689    27098.844            0            0            0            0            0            0
Loop time of 80.6453 on 1 procs for 300 steps with 104 atoms

# Obtain new stress tensor

variable pxx1 equal f_avp[1]
variable pyy1 equal f_avp[2]
variable pzz1 equal f_avp[3]
variable pxy1 equal f_avp[4]
variable pxz1 equal f_avp[5]
variable pyz1 equal f_avp[6]

# Compute elastic constant from pressure tensor

variable C1neg equal 137.677117237762
variable C2neg equal 63.389093503449
variable C3neg equal 81.7599323142501
variable C4neg equal -11.954605536532
variable C5neg equal 0.862495552802453
variable C6neg equal -15.2726541966573

# Reset box and simulation parameters

clear
box tilt large
read_restart restart.equil
Reading restart file ...
  restart file = 29 Sep 2021, LAMMPS = 29 Sep 2021
  restoring atom style atomic from restart
  triclinic box = (0.095103223 0.086882847 0.38870770) to (6.8589983 6.2661315 28.034228) with tilt (2.5584106 0.52556074 1.3547112)
  pair style nequip stores no restart info
  104 atoms
  read_restart CPU = 0.001 seconds
include potential.mod
# NOTE: This script can be modified for different pair styles
# See in.elastic for more info.

# we must undefine any fix ave/* fix before using reset_timestep
if "$(is_defined(fix,avp))" then "unfix avp"
reset_timestep 0

newton off

# Choose potential
# pair_style	sw
# pair_coeff * * Si.sw Si
pair_style	nequip
pair_coeff	* * tob14_l3-deployed.pth Ca Si O H

atom_modify sort 0 0.0
#kspace_style	ewald 1.0e-6# Setup neighbor style

neighbor 2.0 bin
neigh_modify once no every 1 delay 0 check yes

# Setup output

fix avp all ave/time  10 10 100 c_thermo_press mode vector

#min_style cg
#minimize 1.0e-15 1.0e-15 100000 100000 #设置能量最小化

thermo		100
thermo_style custom step temp pe press f_avp[1] f_avp[2] f_avp[3] f_avp[4] f_avp[5] f_avp[6]
thermo_modify norm no

# Setup MD

timestep 0.0001
fix 4 all nve
fix 5 all langevin 300 300 0.01 123457

# Positive deformation

variable delta equal 0.02*6.76389504608471
variable deltaxy equal 0.02*xy
variable deltaxz equal 0.02*xz
variable deltayz equal 0.02*yz
change_box all x delta 0 0.135277900921694 xy delta 0.051168211655824 xz delta 0.0105112148047561 remap units box
Changing box ...
  triclinic box = (0.095103223 0.086882847 0.38870770) to (6.9942762 6.2661315 28.034228) with tilt (2.5584106 0.52556074 1.3547112)
  triclinic box = (0.095103223 0.086882847 0.38870770) to (6.9942762 6.2661315 28.034228) with tilt (2.6095788 0.52556074 1.3547112)
  triclinic box = (0.095103223 0.086882847 0.38870770) to (6.9942762 6.2661315 28.034228) with tilt (2.6095788 0.53607196 1.3547112)

# Run MD

run 1000
  update every 1 steps, delay 0 steps, check yes
Step Temp PotEng Press f_avp[1] f_avp[2] f_avp[3] f_avp[4] f_avp[5] f_avp[6]
0    276.56993   -660.95312   -15133.304            0            0            0            0            0            0
Averages over the last 6 of 11 rows, steps 500 to 1000:
Temp PotEng Press f_avp[1] f_avp[2] f_avp[3] f_avp[4] f_avp[5] f_avp[6]
315.57 -660.427 -1296.32 -14825.4 -3109.13 10693.4 9125.12 6510.64 -3622.75
Loop time of 251.859 on 1 procs for 1000 steps with 104 atoms

include potential.mod
# NOTE: This script can be modified for different pair styles
# See in.elastic for more info.

# we must undefine any fix ave/* fix before using reset_timestep
if "$(is_defined(fix,avp))" then "unfix avp"
unfix avp
reset_timestep 0

newton off

# Choose potential
# pair_style	sw
# pair_coeff * * Si.sw Si
pair_style	nequip
pair_coeff	* * tob14_l3-deployed.pth Ca Si O H

atom_modify sort 0 0.0
#kspace_style	ewald 1.0e-6# Setup neighbor style

neighbor 2.0 bin
neigh_modify once no every 1 delay 0 check yes

# Setup output

fix avp all ave/time  10 10 100 c_thermo_press mode vector

#min_style cg
#minimize 1.0e-15 1.0e-15 100000 100000 #设置能量最小化

thermo		100
thermo_style custom step temp pe press f_avp[1] f_avp[2] f_avp[3] f_avp[4] f_avp[5] f_avp[6]
thermo_modify norm no

# Setup MD

timestep 0.0001
fix 4 all nve
fix 5 all langevin 300 300 0.01 123457

run 300
Step Temp PotEng Press f_avp[1] f_avp[2] f_avp[3] f_avp[4] f_avp[5] f_avp[6]
0    319.96008   -660.61603    1973.2913            0            0            0            0            0            0
Loop time of 80.0004 on 1 procs for 300 steps with 104 atoms

# Obtain new stress tensor

variable pxx1 equal f_avp[1]
variable pyy1 equal f_avp[2]
variable pzz1 equal f_avp[3]
variable pxy1 equal f_avp[4]
variable pxz1 equal f_avp[5]
variable pyz1 equal f_avp[6]

# Compute elastic constant from pressure tensor

variable C1pos equal 71.6419095784792
variable C2pos equal 22.4688236942902
variable C3pos equal -19.6741612610895
variable C4pos equal 12.3508216463902
variable C5pos equal 3.98523449236896
variable C6pos equal 5.19828208384001

# Combine positive and negative

variable C11 equal 0.5*(137.677117237762+71.6419095784792)
variable C21 equal 0.5*(63.389093503449+22.4688236942902)
variable C31 equal 0.5*(81.7599323142501+-19.6741612610895)
variable C41 equal 0.5*(-11.954605536532+12.3508216463902)
variable C51 equal 0.5*(0.862495552802453+3.98523449236896)
variable C61 equal 0.5*(-15.2726541966573+5.19828208384001)

# Delete dir to make sure it is not reused

variable dir delete

# uyy Perturbation

variable dir equal 2
include displace.mod
# NOTE: This script should not need to be
# modified. See in.elastic for more info.
#
# Find which reference length to use

variable len0 equal 6.17924860419115

# Reset box and simulation parameters

clear
box tilt large
read_restart restart.equil
Reading restart file ...
  restart file = 29 Sep 2021, LAMMPS = 29 Sep 2021
  restoring atom style atomic from restart
  triclinic box = (0.095103223 0.086882847 0.38870770) to (6.8589983 6.2661315 28.034228) with tilt (2.5584106 0.52556074 1.3547112)
  pair style nequip stores no restart info
  104 atoms
  read_restart CPU = 0.002 seconds
include potential.mod
# NOTE: This script can be modified for different pair styles
# See in.elastic for more info.

# we must undefine any fix ave/* fix before using reset_timestep
if "$(is_defined(fix,avp))" then "unfix avp"
reset_timestep 0

newton off

# Choose potential
# pair_style	sw
# pair_coeff * * Si.sw Si
pair_style	nequip
pair_coeff	* * tob14_l3-deployed.pth Ca Si O H

atom_modify sort 0 0.0
#kspace_style	ewald 1.0e-6# Setup neighbor style

neighbor 2.0 bin
neigh_modify once no every 1 delay 0 check yes

# Setup output

fix avp all ave/time  10 10 100 c_thermo_press mode vector

#min_style cg
#minimize 1.0e-15 1.0e-15 100000 100000 #设置能量最小化

thermo		100
thermo_style custom step temp pe press f_avp[1] f_avp[2] f_avp[3] f_avp[4] f_avp[5] f_avp[6]
thermo_modify norm no

# Setup MD

timestep 0.0001
fix 4 all nve
fix 5 all langevin 300 300 0.01 123457

# Negative deformation

variable delta equal -0.02*6.17924860419115
variable deltaxy equal -0.02*xy
variable deltaxz equal -0.02*xz
variable deltayz equal -0.02*yz
change_box all y delta 0 -0.123584972083823 yz delta -0.0270942237015451 remap units box
Changing box ...
  triclinic box = (0.095103223 0.086882847 0.38870770) to (6.8589983 6.1425465 28.034228) with tilt (2.5584106 0.52556074 1.3547112)
  triclinic box = (0.095103223 0.086882847 0.38870770) to (6.8589983 6.1425465 28.034228) with tilt (2.5584106 0.52556074 1.3276170)

# Run MD

run 1000
  update every 1 steps, delay 0 steps, check yes
Step Temp PotEng Press f_avp[1] f_avp[2] f_avp[3] f_avp[4] f_avp[5] f_avp[6]
0    276.56993   -660.89563    34574.333            0            0            0            0            0            0
Averages over the last 6 of 11 rows, steps 500 to 1000:
Temp PotEng Press f_avp[1] f_avp[2] f_avp[3] f_avp[4] f_avp[5] f_avp[6]
315.108 -660.505 24659.9 14458.5 29323.2 25093.8 6040.45 6875.51 -3246.82
Loop time of 259.102 on 1 procs for 1000 steps with 104 atoms

include potential.mod
# NOTE: This script can be modified for different pair styles
# See in.elastic for more info.

# we must undefine any fix ave/* fix before using reset_timestep
if "$(is_defined(fix,avp))" then "unfix avp"
unfix avp
reset_timestep 0

newton off

# Choose potential
# pair_style	sw
# pair_coeff * * Si.sw Si
pair_style	nequip
pair_coeff	* * tob14_l3-deployed.pth Ca Si O H

atom_modify sort 0 0.0
#kspace_style	ewald 1.0e-6# Setup neighbor style

neighbor 2.0 bin
neigh_modify once no every 1 delay 0 check yes

# Setup output

fix avp all ave/time  10 10 100 c_thermo_press mode vector

#min_style cg
#minimize 1.0e-15 1.0e-15 100000 100000 #设置能量最小化

thermo		100
thermo_style custom step temp pe press f_avp[1] f_avp[2] f_avp[3] f_avp[4] f_avp[5] f_avp[6]
thermo_modify norm no

# Setup MD

timestep 0.0001
fix 4 all nve
fix 5 all langevin 300 300 0.01 123457

run 300
Step Temp PotEng Press f_avp[1] f_avp[2] f_avp[3] f_avp[4] f_avp[5] f_avp[6]
0    319.62769   -660.68317    27423.576            0            0            0            0            0            0
Loop time of 79.542 on 1 procs for 300 steps with 104 atoms

# Obtain new stress tensor

variable pxx1 equal f_avp[1]
variable pyy1 equal f_avp[2]
variable pzz1 equal f_avp[3]
variable pxy1 equal f_avp[4]
variable pxz1 equal f_avp[5]
variable pyz1 equal f_avp[6]

# Compute elastic constant from pressure tensor

variable C1neg equal 68.622012359086
variable C2neg equal 131.595765904536
variable C3neg equal 84.155572888608
variable C4neg equal -8.7858165176979
variable C5neg equal 1.42488671999545
variable C6neg equal -18.9097981492128

# Reset box and simulation parameters

clear
box tilt large
read_restart restart.equil
Reading restart file ...
  restart file = 29 Sep 2021, LAMMPS = 29 Sep 2021
  restoring atom style atomic from restart
  triclinic box = (0.095103223 0.086882847 0.38870770) to (6.8589983 6.2661315 28.034228) with tilt (2.5584106 0.52556074 1.3547112)
  pair style nequip stores no restart info
  104 atoms
  read_restart CPU = 0.002 seconds
include potential.mod
# NOTE: This script can be modified for different pair styles
# See in.elastic for more info.

# we must undefine any fix ave/* fix before using reset_timestep
if "$(is_defined(fix,avp))" then "unfix avp"
reset_timestep 0

newton off

# Choose potential
# pair_style	sw
# pair_coeff * * Si.sw Si
pair_style	nequip
pair_coeff	* * tob14_l3-deployed.pth Ca Si O H

atom_modify sort 0 0.0
#kspace_style	ewald 1.0e-6# Setup neighbor style

neighbor 2.0 bin
neigh_modify once no every 1 delay 0 check yes

# Setup output

fix avp all ave/time  10 10 100 c_thermo_press mode vector

#min_style cg
#minimize 1.0e-15 1.0e-15 100000 100000 #设置能量最小化

thermo		100
thermo_style custom step temp pe press f_avp[1] f_avp[2] f_avp[3] f_avp[4] f_avp[5] f_avp[6]
thermo_modify norm no

# Setup MD

timestep 0.0001
fix 4 all nve
fix 5 all langevin 300 300 0.01 123457

# Positive deformation

variable delta equal 0.02*6.17924860419115
variable deltaxy equal 0.02*xy
variable deltaxz equal 0.02*xz
variable deltayz equal 0.02*yz
change_box all y delta 0 0.123584972083823 yz delta 0.0270942237015451 remap units box
Changing box ...
  triclinic box = (0.095103223 0.086882847 0.38870770) to (6.8589983 6.3897164 28.034228) with tilt (2.5584106 0.52556074 1.3547112)
  triclinic box = (0.095103223 0.086882847 0.38870770) to (6.8589983 6.3897164 28.034228) with tilt (2.5584106 0.52556074 1.3818054)

# Run MD

run 1000
  update every 1 steps, delay 0 steps, check yes
Step Temp PotEng Press f_avp[1] f_avp[2] f_avp[3] f_avp[4] f_avp[5] f_avp[6]
0    276.56993   -660.81201   -14497.511            0            0            0            0            0            0
Averages over the last 6 of 11 rows, steps 500 to 1000:
Temp PotEng Press f_avp[1] f_avp[2] f_avp[3] f_avp[4] f_avp[5] f_avp[6]
314.884 -660.341 -2132.92 -2973.74 -16353.8 9600.25 10256.5 6991.68 -4099.55
Loop time of 244.68 on 1 procs for 1000 steps with 104 atoms

include potential.mod
# NOTE: This script can be modified for different pair styles
# See in.elastic for more info.

# we must undefine any fix ave/* fix before using reset_timestep
if "$(is_defined(fix,avp))" then "unfix avp"
unfix avp
reset_timestep 0

newton off

# Choose potential
# pair_style	sw
# pair_coeff * * Si.sw Si
pair_style	nequip
pair_coeff	* * tob14_l3-deployed.pth Ca Si O H

atom_modify sort 0 0.0
#kspace_style	ewald 1.0e-6# Setup neighbor style

neighbor 2.0 bin
neigh_modify once no every 1 delay 0 check yes

# Setup output

fix avp all ave/time  10 10 100 c_thermo_press mode vector

#min_style cg
#minimize 1.0e-15 1.0e-15 100000 100000 #设置能量最小化

thermo		100
thermo_style custom step temp pe press f_avp[1] f_avp[2] f_avp[3] f_avp[4] f_avp[5] f_avp[6]
thermo_modify norm no

# Setup MD

timestep 0.0001
fix 4 all nve
fix 5 all langevin 300 300 0.01 123457

run 300
Step Temp PotEng Press f_avp[1] f_avp[2] f_avp[3] f_avp[4] f_avp[5] f_avp[6]
0    320.04068   -660.52972    1574.5814            0            0            0            0            0            0
Loop time of 76.8777 on 1 procs for 300 steps with 104 atoms

# Obtain new stress tensor

variable pxx1 equal f_avp[1]
variable pyy1 equal f_avp[2]
variable pzz1 equal f_avp[3]
variable pxy1 equal f_avp[4]
variable pxz1 equal f_avp[5]
variable pyz1 equal f_avp[6]

# Compute elastic constant from pressure tensor

variable C1pos equal 14.5588525345593
variable C2pos equal 80.6788870751557
variable C3pos equal -16.5811039841145
variable C4pos equal 15.3263842647113
variable C5pos equal 3.8137813292884
variable C6pos equal -1.2675320097427

# Combine positive and negative

variable C12 equal 0.5*(68.622012359086+14.5588525345593)
variable C22 equal 0.5*(131.595765904536+80.6788870751557)
variable C32 equal 0.5*(84.155572888608+-16.5811039841145)
variable C42 equal 0.5*(-8.7858165176979+15.3263842647113)
variable C52 equal 0.5*(1.42488671999545+3.8137813292884)
variable C62 equal 0.5*(-18.9097981492128+-1.2675320097427)

# Delete dir to make sure it is not reused

variable dir delete

# uzz Perturbation

variable dir equal 3
include displace.mod
# NOTE: This script should not need to be
# modified. See in.elastic for more info.
#
# Find which reference length to use

variable len0 equal 27.645520259248

# Reset box and simulation parameters

clear
box tilt large
read_restart restart.equil
Reading restart file ...
  restart file = 29 Sep 2021, LAMMPS = 29 Sep 2021
  restoring atom style atomic from restart
  triclinic box = (0.095103223 0.086882847 0.38870770) to (6.8589983 6.2661315 28.034228) with tilt (2.5584106 0.52556074 1.3547112)
  pair style nequip stores no restart info
  104 atoms
  read_restart CPU = 0.002 seconds
include potential.mod
# NOTE: This script can be modified for different pair styles
# See in.elastic for more info.

# we must undefine any fix ave/* fix before using reset_timestep
if "$(is_defined(fix,avp))" then "unfix avp"
reset_timestep 0

newton off

# Choose potential
# pair_style	sw
# pair_coeff * * Si.sw Si
pair_style	nequip
pair_coeff	* * tob14_l3-deployed.pth Ca Si O H

atom_modify sort 0 0.0
#kspace_style	ewald 1.0e-6# Setup neighbor style

neighbor 2.0 bin
neigh_modify once no every 1 delay 0 check yes

# Setup output

fix avp all ave/time  10 10 100 c_thermo_press mode vector

#min_style cg
#minimize 1.0e-15 1.0e-15 100000 100000 #设置能量最小化

thermo		100
thermo_style custom step temp pe press f_avp[1] f_avp[2] f_avp[3] f_avp[4] f_avp[5] f_avp[6]
thermo_modify norm no

# Setup MD

timestep 0.0001
fix 4 all nve
fix 5 all langevin 300 300 0.01 123457

# Negative deformation

variable delta equal -0.02*27.645520259248
variable deltaxy equal -0.02*xy
variable deltaxz equal -0.02*xz
variable deltayz equal -0.02*yz
change_box all z delta 0 -0.55291040518496 remap units box
Changing box ...
  triclinic box = (0.095103223 0.086882847 0.38870770) to (6.8589983 6.2661315 27.481318) with tilt (2.5584106 0.52556074 1.3547112)

# Run MD

run 1000
  update every 1 steps, delay 0 steps, check yes
Step Temp PotEng Press f_avp[1] f_avp[2] f_avp[3] f_avp[4] f_avp[5] f_avp[6]
0    276.56993   -660.63055    35339.374            0            0            0            0            0            0
Averages over the last 6 of 11 rows, steps 500 to 1000:
Temp PotEng Press f_avp[1] f_avp[2] f_avp[3] f_avp[4] f_avp[5] f_avp[6]
313.809 -660.415 22308.1 12208.9 12945.4 36685.8 5850.33 7318.15 -3648
Loop time of 250.639 on 1 procs for 1000 steps with 104 atoms

include potential.mod
# NOTE: This script can be modified for different pair styles
# See in.elastic for more info.

# we must undefine any fix ave/* fix before using reset_timestep
if "$(is_defined(fix,avp))" then "unfix avp"
unfix avp
reset_timestep 0

newton off

# Choose potential
# pair_style	sw
# pair_coeff * * Si.sw Si
pair_style	nequip
pair_coeff	* * tob14_l3-deployed.pth Ca Si O H

atom_modify sort 0 0.0
#kspace_style	ewald 1.0e-6# Setup neighbor style

neighbor 2.0 bin
neigh_modify once no every 1 delay 0 check yes

# Setup output

fix avp all ave/time  10 10 100 c_thermo_press mode vector

#min_style cg
#minimize 1.0e-15 1.0e-15 100000 100000 #设置能量最小化

thermo		100
thermo_style custom step temp pe press f_avp[1] f_avp[2] f_avp[3] f_avp[4] f_avp[5] f_avp[6]
thermo_modify norm no

# Setup MD

timestep 0.0001
fix 4 all nve
fix 5 all langevin 300 300 0.01 123457

run 300
Step Temp PotEng Press f_avp[1] f_avp[2] f_avp[3] f_avp[4] f_avp[5] f_avp[6]
0    316.59461   -660.63904    24628.412            0            0            0            0            0            0
Loop time of 78.7195 on 1 procs for 300 steps with 104 atoms

# Obtain new stress tensor

variable pxx1 equal f_avp[1]
variable pyy1 equal f_avp[2]
variable pzz1 equal f_avp[3]
variable pxy1 equal f_avp[4]
variable pxz1 equal f_avp[5]
variable pyz1 equal f_avp[6]

# Compute elastic constant from pressure tensor

variable C1neg equal 53.1831316109374
variable C2neg equal 52.0627157928444
variable C3neg equal 134.753532191633
variable C4neg equal -11.7169681520701
variable C5neg equal 2.92080838695645
variable C6neg equal -17.6488481821052

# Reset box and simulation parameters

clear
box tilt large
read_restart restart.equil
Reading restart file ...
  restart file = 29 Sep 2021, LAMMPS = 29 Sep 2021
  restoring atom style atomic from restart
  triclinic box = (0.095103223 0.086882847 0.38870770) to (6.8589983 6.2661315 28.034228) with tilt (2.5584106 0.52556074 1.3547112)
  pair style nequip stores no restart info
  104 atoms
  read_restart CPU = 0.000 seconds
include potential.mod
# NOTE: This script can be modified for different pair styles
# See in.elastic for more info.

# we must undefine any fix ave/* fix before using reset_timestep
if "$(is_defined(fix,avp))" then "unfix avp"
reset_timestep 0

newton off

# Choose potential
# pair_style	sw
# pair_coeff * * Si.sw Si
pair_style	nequip
pair_coeff	* * tob14_l3-deployed.pth Ca Si O H

atom_modify sort 0 0.0
#kspace_style	ewald 1.0e-6# Setup neighbor style

neighbor 2.0 bin
neigh_modify once no every 1 delay 0 check yes

# Setup output

fix avp all ave/time  10 10 100 c_thermo_press mode vector

#min_style cg
#minimize 1.0e-15 1.0e-15 100000 100000 #设置能量最小化

thermo		100
thermo_style custom step temp pe press f_avp[1] f_avp[2] f_avp[3] f_avp[4] f_avp[5] f_avp[6]
thermo_modify norm no

# Setup MD

timestep 0.0001
fix 4 all nve
fix 5 all langevin 300 300 0.01 123457

# Positive deformation

variable delta equal 0.02*27.645520259248
variable deltaxy equal 0.02*xy
variable deltaxz equal 0.02*xz
variable deltayz equal 0.02*yz
change_box all z delta 0 0.55291040518496 remap units box
Changing box ...
  triclinic box = (0.095103223 0.086882847 0.38870770) to (6.8589983 6.2661315 28.587138) with tilt (2.5584106 0.52556074 1.3547112)

# Run MD

run 1000
  update every 1 steps, delay 0 steps, check yes
Step Temp PotEng Press f_avp[1] f_avp[2] f_avp[3] f_avp[4] f_avp[5] f_avp[6]
0    276.56993   -661.01416   -15111.536            0            0            0            0            0            0
Averages over the last 6 of 11 rows, steps 500 to 1000:
Temp PotEng Press f_avp[1] f_avp[2] f_avp[3] f_avp[4] f_avp[5] f_avp[6]
316.316 -660.537 -281.016 -1283.82 -2192.9 -1001.66 10097.4 6404.79 -3762.41
Loop time of 241.333 on 1 procs for 1000 steps with 104 atoms

include potential.mod
# NOTE: This script can be modified for different pair styles
# See in.elastic for more info.

# we must undefine any fix ave/* fix before using reset_timestep
if "$(is_defined(fix,avp))" then "unfix avp"
unfix avp
reset_timestep 0

newton off

# Choose potential
# pair_style	sw
# pair_coeff * * Si.sw Si
pair_style	nequip
pair_coeff	* * tob14_l3-deployed.pth Ca Si O H

atom_modify sort 0 0.0
#kspace_style	ewald 1.0e-6# Setup neighbor style

neighbor 2.0 bin
neigh_modify once no every 1 delay 0 check yes

# Setup output

fix avp all ave/time  10 10 100 c_thermo_press mode vector

#min_style cg
#minimize 1.0e-15 1.0e-15 100000 100000 #设置能量最小化

thermo		100
thermo_style custom step temp pe press f_avp[1] f_avp[2] f_avp[3] f_avp[4] f_avp[5] f_avp[6]
thermo_modify norm no

# Setup MD

timestep 0.0001
fix 4 all nve
fix 5 all langevin 300 300 0.01 123457

run 300
Step Temp PotEng Press f_avp[1] f_avp[2] f_avp[3] f_avp[4] f_avp[5] f_avp[6]
0    322.84229   -660.68359    3880.1204            0            0            0            0            0            0
Loop time of 72.8716 on 1 procs for 300 steps with 104 atoms

# Obtain new stress tensor

variable pxx1 equal f_avp[1]
variable pyy1 equal f_avp[2]
variable pzz1 equal f_avp[3]
variable pxy1 equal f_avp[4]
variable pxz1 equal f_avp[5]
variable pyz1 equal f_avp[6]

# Compute elastic constant from pressure tensor

variable C1pos equal 1.7384816354322
variable C2pos equal 13.2472391591212
variable C3pos equal 29.2280674589272
variable C4pos equal 12.707341567074
variable C5pos equal 6.1436831460792
variable C6pos equal 1.79869872940495

# Combine positive and negative

variable C13 equal 0.5*(53.1831316109374+1.7384816354322)
variable C23 equal 0.5*(52.0627157928444+13.2472391591212)
variable C33 equal 0.5*(134.753532191633+29.2280674589272)
variable C43 equal 0.5*(-11.7169681520701+12.707341567074)
variable C53 equal 0.5*(2.92080838695645+6.1436831460792)
variable C63 equal 0.5*(-17.6488481821052+1.79869872940495)

# Delete dir to make sure it is not reused

variable dir delete

# uyz Perturbation

variable dir equal 4
include displace.mod
# NOTE: This script should not need to be
# modified. See in.elastic for more info.
#
# Find which reference length to use

variable len0 equal 27.645520259248

# Reset box and simulation parameters

clear
box tilt large
read_restart restart.equil
Reading restart file ...
  restart file = 29 Sep 2021, LAMMPS = 29 Sep 2021
  restoring atom style atomic from restart
  triclinic box = (0.095103223 0.086882847 0.38870770) to (6.8589983 6.2661315 28.034228) with tilt (2.5584106 0.52556074 1.3547112)
  pair style nequip stores no restart info
  104 atoms
  read_restart CPU = 0.001 seconds
include potential.mod
# NOTE: This script can be modified for different pair styles
# See in.elastic for more info.

# we must undefine any fix ave/* fix before using reset_timestep
if "$(is_defined(fix,avp))" then "unfix avp"
reset_timestep 0

newton off

# Choose potential
# pair_style	sw
# pair_coeff * * Si.sw Si
pair_style	nequip
pair_coeff	* * tob14_l3-deployed.pth Ca Si O H

atom_modify sort 0 0.0
#kspace_style	ewald 1.0e-6# Setup neighbor style

neighbor 2.0 bin
neigh_modify once no every 1 delay 0 check yes

# Setup output

fix avp all ave/time  10 10 100 c_thermo_press mode vector

#min_style cg
#minimize 1.0e-15 1.0e-15 100000 100000 #设置能量最小化

thermo		100
thermo_style custom step temp pe press f_avp[1] f_avp[2] f_avp[3] f_avp[4] f_avp[5] f_avp[6]
thermo_modify norm no

# Setup MD

timestep 0.0001
fix 4 all nve
fix 5 all langevin 300 300 0.01 123457

# Negative deformation

variable delta equal -0.02*27.645520259248
variable deltaxy equal -0.02*xy
variable deltaxz equal -0.02*xz
variable deltayz equal -0.02*yz
change_box all yz delta -0.55291040518496 remap units box
Changing box ...
  triclinic box = (0.095103223 0.086882847 0.38870770) to (6.8589983 6.2661315 28.034228) with tilt (2.5584106 0.52556074 0.80180078)

# Run MD

run 1000
  update every 1 steps, delay 0 steps, check yes
Step Temp PotEng Press f_avp[1] f_avp[2] f_avp[3] f_avp[4] f_avp[5] f_avp[6]
0    276.56993   -661.10077    8682.8651            0            0            0            0            0            0
Averages over the last 6 of 11 rows, steps 500 to 1000:
Temp PotEng Press f_avp[1] f_avp[2] f_avp[3] f_avp[4] f_avp[5] f_avp[6]
315.759 -660.609 10658 5176.05 5516.69 17097.3 7781.55 4633.8 3212.11
Loop time of 242.016 on 1 procs for 1000 steps with 104 atoms

include potential.mod
# NOTE: This script can be modified for different pair styles
# See in.elastic for more info.

# we must undefine any fix ave/* fix before using reset_timestep
if "$(is_defined(fix,avp))" then "unfix avp"
unfix avp
reset_timestep 0

newton off

# Choose potential
# pair_style	sw
# pair_coeff * * Si.sw Si
pair_style	nequip
pair_coeff	* * tob14_l3-deployed.pth Ca Si O H

atom_modify sort 0 0.0
#kspace_style	ewald 1.0e-6# Setup neighbor style

neighbor 2.0 bin
neigh_modify once no every 1 delay 0 check yes

# Setup output

fix avp all ave/time  10 10 100 c_thermo_press mode vector

#min_style cg
#minimize 1.0e-15 1.0e-15 100000 100000 #设置能量最小化

thermo		100
thermo_style custom step temp pe press f_avp[1] f_avp[2] f_avp[3] f_avp[4] f_avp[5] f_avp[6]
thermo_modify norm no

# Setup MD

timestep 0.0001
fix 4 all nve
fix 5 all langevin 300 300 0.01 123457

run 300
Step Temp PotEng Press f_avp[1] f_avp[2] f_avp[3] f_avp[4] f_avp[5] f_avp[6]
0     320.0598   -660.81293    14117.504            0            0            0            0            0            0
Loop time of 77.6665 on 1 procs for 300 steps with 104 atoms

# Obtain new stress tensor

variable pxx1 equal f_avp[1]
variable pyy1 equal f_avp[2]
variable pzz1 equal f_avp[3]
variable pxy1 equal f_avp[4]
variable pxz1 equal f_avp[5]
variable pyz1 equal f_avp[6]

# Compute elastic constant from pressure tensor

variable C1neg equal 23.7972162171025
variable C2neg equal 20.8039102972954
variable C3neg equal 48.561113558151
variable C4neg equal 19.3343103277002
variable C5neg equal -13.1111628278843
variable C6neg equal -10.0715642481846

# Reset box and simulation parameters

clear
box tilt large
read_restart restart.equil
Reading restart file ...
  restart file = 29 Sep 2021, LAMMPS = 29 Sep 2021
  restoring atom style atomic from restart
  triclinic box = (0.095103223 0.086882847 0.38870770) to (6.8589983 6.2661315 28.034228) with tilt (2.5584106 0.52556074 1.3547112)
  pair style nequip stores no restart info
  104 atoms
  read_restart CPU = 0.002 seconds
include potential.mod
# NOTE: This script can be modified for different pair styles
# See in.elastic for more info.

# we must undefine any fix ave/* fix before using reset_timestep
if "$(is_defined(fix,avp))" then "unfix avp"
reset_timestep 0

newton off

# Choose potential
# pair_style	sw
# pair_coeff * * Si.sw Si
pair_style	nequip
pair_coeff	* * tob14_l3-deployed.pth Ca Si O H

atom_modify sort 0 0.0
#kspace_style	ewald 1.0e-6# Setup neighbor style

neighbor 2.0 bin
neigh_modify once no every 1 delay 0 check yes

# Setup output

fix avp all ave/time  10 10 100 c_thermo_press mode vector

#min_style cg
#minimize 1.0e-15 1.0e-15 100000 100000 #设置能量最小化

thermo		100
thermo_style custom step temp pe press f_avp[1] f_avp[2] f_avp[3] f_avp[4] f_avp[5] f_avp[6]
thermo_modify norm no

# Setup MD

timestep 0.0001
fix 4 all nve
fix 5 all langevin 300 300 0.01 123457

# Positive deformation

variable delta equal 0.02*27.645520259248
variable deltaxy equal 0.02*xy
variable deltaxz equal 0.02*xz
variable deltayz equal 0.02*yz
change_box all yz delta 0.55291040518496 remap units box
Changing box ...
  triclinic box = (0.095103223 0.086882847 0.38870770) to (6.8589983 6.2661315 28.034228) with tilt (2.5584106 0.52556074 1.9076216)

# Run MD

run 1000
  update every 1 steps, delay 0 steps, check yes
Step Temp PotEng Press f_avp[1] f_avp[2] f_avp[3] f_avp[4] f_avp[5] f_avp[6]
0    276.56993   -661.00751    8716.5618            0            0            0            0            0            0
Averages over the last 6 of 11 rows, steps 500 to 1000:
Temp PotEng Press f_avp[1] f_avp[2] f_avp[3] f_avp[4] f_avp[5] f_avp[6]
314.302 -660.471 10196.9 5135.83 4440.16 16898.3 8431.54 9200.02 -10571.2
Loop time of 245.935 on 1 procs for 1000 steps with 104 atoms

include potential.mod
# NOTE: This script can be modified for different pair styles
# See in.elastic for more info.

# we must undefine any fix ave/* fix before using reset_timestep
if "$(is_defined(fix,avp))" then "unfix avp"
unfix avp
reset_timestep 0

newton off

# Choose potential
# pair_style	sw
# pair_coeff * * Si.sw Si
pair_style	nequip
pair_coeff	* * tob14_l3-deployed.pth Ca Si O H

atom_modify sort 0 0.0
#kspace_style	ewald 1.0e-6# Setup neighbor style

neighbor 2.0 bin
neigh_modify once no every 1 delay 0 check yes

# Setup output

fix avp all ave/time  10 10 100 c_thermo_press mode vector

#min_style cg
#minimize 1.0e-15 1.0e-15 100000 100000 #设置能量最小化

thermo		100
thermo_style custom step temp pe press f_avp[1] f_avp[2] f_avp[3] f_avp[4] f_avp[5] f_avp[6]
thermo_modify norm no

# Setup MD

timestep 0.0001
fix 4 all nve
fix 5 all langevin 300 300 0.01 123457

run 300
Step Temp PotEng Press f_avp[1] f_avp[2] f_avp[3] f_avp[4] f_avp[5] f_avp[6]
0    319.97194   -660.63702    13204.502            0            0            0            0            0            0
Loop time of 77.3436 on 1 procs for 300 steps with 104 atoms

# Obtain new stress tensor

variable pxx1 equal f_avp[1]
variable pyy1 equal f_avp[2]
variable pzz1 equal f_avp[3]
variable pxy1 equal f_avp[4]
variable pxz1 equal f_avp[5]
variable pyz1 equal f_avp[6]

# Compute elastic constant from pressure tensor

variable C1pos equal -25.2744137984754
variable C2pos equal -14.2534837411485
variable C3pos equal -49.262294325819
variable C4pos equal 43.1623015238028
variable C5pos equal -10.4087818302346
variable C6pos equal 8.61583128347754

# Combine positive and negative

variable C14 equal 0.5*(23.7972162171025+-25.2744137984754)
variable C24 equal 0.5*(20.8039102972954+-14.2534837411485)
variable C34 equal 0.5*(48.561113558151+-49.262294325819)
variable C44 equal 0.5*(19.3343103277002+43.1623015238028)
variable C54 equal 0.5*(-13.1111628278843+-10.4087818302346)
variable C64 equal 0.5*(-10.0715642481846+8.61583128347754)

# Delete dir to make sure it is not reused

variable dir delete

# uxz Perturbation

variable dir equal 5
include displace.mod
# NOTE: This script should not need to be
# modified. See in.elastic for more info.
#
# Find which reference length to use

variable len0 equal 27.645520259248

# Reset box and simulation parameters

clear
box tilt large
read_restart restart.equil
Reading restart file ...
  restart file = 29 Sep 2021, LAMMPS = 29 Sep 2021
  restoring atom style atomic from restart
  triclinic box = (0.095103223 0.086882847 0.38870770) to (6.8589983 6.2661315 28.034228) with tilt (2.5584106 0.52556074 1.3547112)
  pair style nequip stores no restart info
  104 atoms
  read_restart CPU = 0.002 seconds
include potential.mod
# NOTE: This script can be modified for different pair styles
# See in.elastic for more info.

# we must undefine any fix ave/* fix before using reset_timestep
if "$(is_defined(fix,avp))" then "unfix avp"
reset_timestep 0

newton off

# Choose potential
# pair_style	sw
# pair_coeff * * Si.sw Si
pair_style	nequip
pair_coeff	* * tob14_l3-deployed.pth Ca Si O H

atom_modify sort 0 0.0
#kspace_style	ewald 1.0e-6# Setup neighbor style

neighbor 2.0 bin
neigh_modify once no every 1 delay 0 check yes

# Setup output

fix avp all ave/time  10 10 100 c_thermo_press mode vector

#min_style cg
#minimize 1.0e-15 1.0e-15 100000 100000 #设置能量最小化

thermo		100
thermo_style custom step temp pe press f_avp[1] f_avp[2] f_avp[3] f_avp[4] f_avp[5] f_avp[6]
thermo_modify norm no

# Setup MD

timestep 0.0001
fix 4 all nve
fix 5 all langevin 300 300 0.01 123457

# Negative deformation

variable delta equal -0.02*27.645520259248
variable deltaxy equal -0.02*xy
variable deltaxz equal -0.02*xz
variable deltayz equal -0.02*yz
change_box all xz delta -0.55291040518496 remap units box
Changing box ...
  triclinic box = (0.095103223 0.086882847 0.38870770) to (6.8589983 6.2661315 28.034228) with tilt (2.5584106 -0.027349665 1.3547112)

# Run MD

run 1000
  update every 1 steps, delay 0 steps, check yes
Step Temp PotEng Press f_avp[1] f_avp[2] f_avp[3] f_avp[4] f_avp[5] f_avp[6]
0    276.56993   -660.99823    8871.0831            0            0            0            0            0            0
Averages over the last 6 of 11 rows, steps 500 to 1000:
Temp PotEng Press f_avp[1] f_avp[2] f_avp[3] f_avp[4] f_avp[5] f_avp[6]
314.567 -660.473 10608.9 5216.99 4907.77 17506.6 7970.78 12780.4 -5898.76
Loop time of 242.985 on 1 procs for 1000 steps with 104 atoms

include potential.mod
# NOTE: This script can be modified for different pair styles
# See in.elastic for more info.

# we must undefine any fix ave/* fix before using reset_timestep
if "$(is_defined(fix,avp))" then "unfix avp"
unfix avp
reset_timestep 0

newton off

# Choose potential
# pair_style	sw
# pair_coeff * * Si.sw Si
pair_style	nequip
pair_coeff	* * tob14_l3-deployed.pth Ca Si O H

atom_modify sort 0 0.0
#kspace_style	ewald 1.0e-6# Setup neighbor style

neighbor 2.0 bin
neigh_modify once no every 1 delay 0 check yes

# Setup output

fix avp all ave/time  10 10 100 c_thermo_press mode vector

#min_style cg
#minimize 1.0e-15 1.0e-15 100000 100000 #设置能量最小化

thermo		100
thermo_style custom step temp pe press f_avp[1] f_avp[2] f_avp[3] f_avp[4] f_avp[5] f_avp[6]
thermo_modify norm no

# Setup MD

timestep 0.0001
fix 4 all nve
fix 5 all langevin 300 300 0.01 123457

run 300
Step Temp PotEng Press f_avp[1] f_avp[2] f_avp[3] f_avp[4] f_avp[5] f_avp[6]
0    320.00878   -660.65106    13832.931            0            0            0            0            0            0
Loop time of 77.9519 on 1 procs for 300 steps with 104 atoms

# Obtain new stress tensor

variable pxx1 equal f_avp[1]
variable pyy1 equal f_avp[2]
variable pzz1 equal f_avp[3]
variable pxy1 equal f_avp[4]
variable pxz1 equal f_avp[5]
variable pyz1 equal f_avp[6]

# Compute elastic constant from pressure tensor

variable C1neg equal 25.9541150595735
variable C2neg equal 19.228243640333
variable C3neg equal 52.981118591694
variable C4neg equal -23.9972663341138
variable C5neg equal 23.2468153609707
variable C6neg equal -9.136903914088

# Reset box and simulation parameters

clear
box tilt large
read_restart restart.equil
Reading restart file ...
  restart file = 29 Sep 2021, LAMMPS = 29 Sep 2021
  restoring atom style atomic from restart
  triclinic box = (0.095103223 0.086882847 0.38870770) to (6.8589983 6.2661315 28.034228) with tilt (2.5584106 0.52556074 1.3547112)
  pair style nequip stores no restart info
  104 atoms
  read_restart CPU = 0.001 seconds
include potential.mod
# NOTE: This script can be modified for different pair styles
# See in.elastic for more info.

# we must undefine any fix ave/* fix before using reset_timestep
if "$(is_defined(fix,avp))" then "unfix avp"
reset_timestep 0

newton off

# Choose potential
# pair_style	sw
# pair_coeff * * Si.sw Si
pair_style	nequip
pair_coeff	* * tob14_l3-deployed.pth Ca Si O H

atom_modify sort 0 0.0
#kspace_style	ewald 1.0e-6# Setup neighbor style

neighbor 2.0 bin
neigh_modify once no every 1 delay 0 check yes

# Setup output

fix avp all ave/time  10 10 100 c_thermo_press mode vector

#min_style cg
#minimize 1.0e-15 1.0e-15 100000 100000 #设置能量最小化

thermo		100
thermo_style custom step temp pe press f_avp[1] f_avp[2] f_avp[3] f_avp[4] f_avp[5] f_avp[6]
thermo_modify norm no

# Setup MD

timestep 0.0001
fix 4 all nve
fix 5 all langevin 300 300 0.01 123457

# Positive deformation

variable delta equal 0.02*27.645520259248
variable deltaxy equal 0.02*xy
variable deltaxz equal 0.02*xz
variable deltayz equal 0.02*yz
change_box all xz delta 0.55291040518496 remap units box
Changing box ...
  triclinic box = (0.095103223 0.086882847 0.38870770) to (6.8589983 6.2661315 28.034228) with tilt (2.5584106 1.0784711 1.3547112)

# Run MD

run 1000
  update every 1 steps, delay 0 steps, check yes
Step Temp PotEng Press f_avp[1] f_avp[2] f_avp[3] f_avp[4] f_avp[5] f_avp[6]
0    276.56993   -661.10004    8624.1006            0            0            0            0            0            0
Averages over the last 6 of 11 rows, steps 500 to 1000:
Temp PotEng Press f_avp[1] f_avp[2] f_avp[3] f_avp[4] f_avp[5] f_avp[6]
315.608 -660.622 10339.7 5078.12 5232.26 16479.2 8197.4 1047.73 -1500.91
Loop time of 245.705 on 1 procs for 1000 steps with 104 atoms

include potential.mod
# NOTE: This script can be modified for different pair styles
# See in.elastic for more info.

# we must undefine any fix ave/* fix before using reset_timestep
if "$(is_defined(fix,avp))" then "unfix avp"
unfix avp
reset_timestep 0

newton off

# Choose potential
# pair_style	sw
# pair_coeff * * Si.sw Si
pair_style	nequip
pair_coeff	* * tob14_l3-deployed.pth Ca Si O H

atom_modify sort 0 0.0
#kspace_style	ewald 1.0e-6# Setup neighbor style

neighbor 2.0 bin
neigh_modify once no every 1 delay 0 check yes

# Setup output

fix avp all ave/time  10 10 100 c_thermo_press mode vector

#min_style cg
#minimize 1.0e-15 1.0e-15 100000 100000 #设置能量最小化

thermo		100
thermo_style custom step temp pe press f_avp[1] f_avp[2] f_avp[3] f_avp[4] f_avp[5] f_avp[6]
thermo_modify norm no

# Setup MD

timestep 0.0001
fix 4 all nve
fix 5 all langevin 300 300 0.01 123457

run 300
Step Temp PotEng Press f_avp[1] f_avp[2] f_avp[3] f_avp[4] f_avp[5] f_avp[6]
0    320.06718   -660.81427    13612.154            0            0            0            0            0            0
Loop time of 77.4674 on 1 procs for 300 steps with 104 atoms

# Obtain new stress tensor

variable pxx1 equal f_avp[1]
variable pyy1 equal f_avp[2]
variable pzz1 equal f_avp[3]
variable pxy1 equal f_avp[4]
variable pxz1 equal f_avp[5]
variable pyz1 equal f_avp[6]

# Compute elastic constant from pressure tensor

variable C1pos equal -23.0568277975545
variable C2pos equal -16.4914824845109
variable C3pos equal -45.080263221672
variable C4pos equal 0.394707097824751
variable C5pos equal 25.9286478474396
variable C6pos equal 9.96034919284559

# Combine positive and negative

variable C15 equal 0.5*(25.9541150595735+-23.0568277975545)
variable C25 equal 0.5*(19.228243640333+-16.4914824845109)
variable C35 equal 0.5*(52.981118591694+-45.080263221672)
variable C45 equal 0.5*(-23.9972663341138+0.394707097824751)
variable C55 equal 0.5*(23.2468153609707+25.9286478474396)
variable C65 equal 0.5*(-9.136903914088+9.96034919284559)

# Delete dir to make sure it is not reused

variable dir delete

# uxy Perturbation

variable dir equal 6
include displace.mod
# NOTE: This script should not need to be
# modified. See in.elastic for more info.
#
# Find which reference length to use

variable len0 equal 6.17924860419115

# Reset box and simulation parameters

clear
box tilt large
read_restart restart.equil
Reading restart file ...
  restart file = 29 Sep 2021, LAMMPS = 29 Sep 2021
  restoring atom style atomic from restart
  triclinic box = (0.095103223 0.086882847 0.38870770) to (6.8589983 6.2661315 28.034228) with tilt (2.5584106 0.52556074 1.3547112)
  pair style nequip stores no restart info
  104 atoms
  read_restart CPU = 0.002 seconds
include potential.mod
# NOTE: This script can be modified for different pair styles
# See in.elastic for more info.

# we must undefine any fix ave/* fix before using reset_timestep
if "$(is_defined(fix,avp))" then "unfix avp"
reset_timestep 0

newton off

# Choose potential
# pair_style	sw
# pair_coeff * * Si.sw Si
pair_style	nequip
pair_coeff	* * tob14_l3-deployed.pth Ca Si O H

atom_modify sort 0 0.0
#kspace_style	ewald 1.0e-6# Setup neighbor style

neighbor 2.0 bin
neigh_modify once no every 1 delay 0 check yes

# Setup output

fix avp all ave/time  10 10 100 c_thermo_press mode vector

#min_style cg
#minimize 1.0e-15 1.0e-15 100000 100000 #设置能量最小化

thermo		100
thermo_style custom step temp pe press f_avp[1] f_avp[2] f_avp[3] f_avp[4] f_avp[5] f_avp[6]
thermo_modify norm no

# Setup MD

timestep 0.0001
fix 4 all nve
fix 5 all langevin 300 300 0.01 123457

# Negative deformation

variable delta equal -0.02*6.17924860419115
variable deltaxy equal -0.02*xy
variable deltaxz equal -0.02*xz
variable deltayz equal -0.02*yz
change_box all xy delta -0.123584972083823 remap units box
Changing box ...
  triclinic box = (0.095103223 0.086882847 0.38870770) to (6.8589983 6.2661315 28.034228) with tilt (2.4348256 0.52556074 1.3547112)

# Run MD

run 1000
  update every 1 steps, delay 0 steps, check yes
Step Temp PotEng Press f_avp[1] f_avp[2] f_avp[3] f_avp[4] f_avp[5] f_avp[6]
0    276.56993   -660.94312    9086.9785            0            0            0            0            0            0
Averages over the last 6 of 11 rows, steps 500 to 1000:
Temp PotEng Press f_avp[1] f_avp[2] f_avp[3] f_avp[4] f_avp[5] f_avp[6]
315.407 -660.443 8491.3 3621.92 3030.92 14574.2 16150.2 6534.68 -3766.83
Loop time of 238.175 on 1 procs for 1000 steps with 104 atoms

include potential.mod
# NOTE: This script can be modified for different pair styles
# See in.elastic for more info.

# we must undefine any fix ave/* fix before using reset_timestep
if "$(is_defined(fix,avp))" then "unfix avp"
unfix avp
reset_timestep 0

newton off

# Choose potential
# pair_style	sw
# pair_coeff * * Si.sw Si
pair_style	nequip
pair_coeff	* * tob14_l3-deployed.pth Ca Si O H

atom_modify sort 0 0.0
#kspace_style	ewald 1.0e-6# Setup neighbor style

neighbor 2.0 bin
neigh_modify once no every 1 delay 0 check yes

# Setup output

fix avp all ave/time  10 10 100 c_thermo_press mode vector

#min_style cg
#minimize 1.0e-15 1.0e-15 100000 100000 #设置能量最小化

thermo		100
thermo_style custom step temp pe press f_avp[1] f_avp[2] f_avp[3] f_avp[4] f_avp[5] f_avp[6]
thermo_modify norm no

# Setup MD

timestep 0.0001
fix 4 all nve
fix 5 all langevin 300 300 0.01 123457

run 300
Step Temp PotEng Press f_avp[1] f_avp[2] f_avp[3] f_avp[4] f_avp[5] f_avp[6]
0    320.04877   -660.64227    11927.794            0            0            0            0            0            0
Loop time of 74.2975 on 1 procs for 300 steps with 104 atoms

# Obtain new stress tensor

variable pxx1 equal f_avp[1]
variable pyy1 equal f_avp[2]
variable pzz1 equal f_avp[3]
variable pxy1 equal f_avp[4]
variable pxz1 equal f_avp[5]
variable pyz1 equal f_avp[6]

# Compute elastic constant from pressure tensor

variable C1neg equal 18.678708507257
variable C2neg equal 8.80128126264825
variable C3neg equal 37.918419003455
variable C4neg equal -13.352872939895
variable C5neg equal -2.44092093282765
variable C6neg equal 30.3129119191536

# Reset box and simulation parameters

clear
box tilt large
read_restart restart.equil
Reading restart file ...
  restart file = 29 Sep 2021, LAMMPS = 29 Sep 2021
  restoring atom style atomic from restart
  triclinic box = (0.095103223 0.086882847 0.38870770) to (6.8589983 6.2661315 28.034228) with tilt (2.5584106 0.52556074 1.3547112)
  pair style nequip stores no restart info
  104 atoms
  read_restart CPU = 0.002 seconds
include potential.mod
# NOTE: This script can be modified for different pair styles
# See in.elastic for more info.

# we must undefine any fix ave/* fix before using reset_timestep
if "$(is_defined(fix,avp))" then "unfix avp"
reset_timestep 0

newton off

# Choose potential
# pair_style	sw
# pair_coeff * * Si.sw Si
pair_style	nequip
pair_coeff	* * tob14_l3-deployed.pth Ca Si O H

atom_modify sort 0 0.0
#kspace_style	ewald 1.0e-6# Setup neighbor style

neighbor 2.0 bin
neigh_modify once no every 1 delay 0 check yes

# Setup output

fix avp all ave/time  10 10 100 c_thermo_press mode vector

#min_style cg
#minimize 1.0e-15 1.0e-15 100000 100000 #设置能量最小化

thermo		100
thermo_style custom step temp pe press f_avp[1] f_avp[2] f_avp[3] f_avp[4] f_avp[5] f_avp[6]
thermo_modify norm no

# Setup MD

timestep 0.0001
fix 4 all nve
fix 5 all langevin 300 300 0.01 123457

# Positive deformation

variable delta equal 0.02*6.17924860419115
variable deltaxy equal 0.02*xy
variable deltaxz equal 0.02*xz
variable deltayz equal 0.02*yz
change_box all xy delta 0.123584972083823 remap units box
Changing box ...
  triclinic box = (0.095103223 0.086882847 0.38870770) to (6.8589983 6.2661315 28.034228) with tilt (2.6819956 0.52556074 1.3547112)

# Run MD

run 1000
  update every 1 steps, delay 0 steps, check yes
Step Temp PotEng Press f_avp[1] f_avp[2] f_avp[3] f_avp[4] f_avp[5] f_avp[6]
0    276.56993   -661.13867    8409.2529            0            0            0            0            0            0
Averages over the last 6 of 11 rows, steps 500 to 1000:
Temp PotEng Press f_avp[1] f_avp[2] f_avp[3] f_avp[4] f_avp[5] f_avp[6]
314.758 -660.612 12368.3 6415.55 7330.97 19198.3 33.9128 7310.69 -3647.81
Loop time of 246.936 on 1 procs for 1000 steps with 104 atoms

include potential.mod
# NOTE: This script can be modified for different pair styles
# See in.elastic for more info.

# we must undefine any fix ave/* fix before using reset_timestep
if "$(is_defined(fix,avp))" then "unfix avp"
unfix avp
reset_timestep 0

newton off

# Choose potential
# pair_style	sw
# pair_coeff * * Si.sw Si
pair_style	nequip
pair_coeff	* * tob14_l3-deployed.pth Ca Si O H

atom_modify sort 0 0.0
#kspace_style	ewald 1.0e-6# Setup neighbor style

neighbor 2.0 bin
neigh_modify once no every 1 delay 0 check yes

# Setup output

fix avp all ave/time  10 10 100 c_thermo_press mode vector

#min_style cg
#minimize 1.0e-15 1.0e-15 100000 100000 #设置能量最小化

thermo		100
thermo_style custom step temp pe press f_avp[1] f_avp[2] f_avp[3] f_avp[4] f_avp[5] f_avp[6]
thermo_modify norm no

# Setup MD

timestep 0.0001
fix 4 all nve
fix 5 all langevin 300 300 0.01 123457

run 300
Step Temp PotEng Press f_avp[1] f_avp[2] f_avp[3] f_avp[4] f_avp[5] f_avp[6]
0    320.11023   -660.78125    15417.561            0            0            0            0            0            0
Loop time of 78.0552 on 1 procs for 300 steps with 104 atoms

# Obtain new stress tensor

variable pxx1 equal f_avp[1]
variable pyy1 equal f_avp[2]
variable pzz1 equal f_avp[3]
variable pxy1 equal f_avp[4]
variable pxz1 equal f_avp[5]
variable pyz1 equal f_avp[6]

# Compute elastic constant from pressure tensor

variable C1pos equal -28.829303579323
variable C2pos equal -27.9415326691384
variable C3pos equal -58.9555589923315
variable C4pos equal 11.1231168504112
variable C5pos equal 0.27487016688825
variable C6pos equal 49.2947407799262

# Combine positive and negative

variable C16 equal 0.5*(18.678708507257+-28.829303579323)
variable C26 equal 0.5*(8.80128126264825+-27.9415326691384)
variable C36 equal 0.5*(37.918419003455+-58.9555589923315)
variable C46 equal 0.5*(-13.352872939895+11.1231168504112)
variable C56 equal 0.5*(-2.44092093282765+0.27487016688825)
variable C66 equal 0.5*(30.3129119191536+49.2947407799262)

# Delete dir to make sure it is not reused

variable dir delete

# Output final values

variable C11all equal 104.659513408121
variable C22all equal 106.137326489846
variable C33all equal 81.9907998252801

variable C12all equal 0.5*(41.5904324468226+42.9289585988696)
variable C13all equal 0.5*(27.4608066231848+31.0428855265803)
variable C23all equal 0.5*(32.6549774759828+33.7872344522468)

variable C44all equal 31.2483059257515
variable C55all equal 24.5877316042051
variable C66all equal 39.8038263495399

variable C14all equal 0.5*(-0.738598790686451+0.1981080549291)
variable C15all equal 0.5*(1.4486436310095+2.42386502258571)
variable C16all equal 0.5*(-5.075297536033+-5.03718605640865)

variable C24all equal 0.5*(3.27521327807345+3.2702838735067)
variable C25all equal 0.5*(1.36838057791105+2.61933402464193)
variable C26all equal 0.5*(-9.57012570324508+-10.0886650794777)

variable C34all equal 0.5*(-0.350590383834+0.49518670750195)
variable C35all equal 0.5*(3.950427685011+4.53224576651782)
variable C36all equal 0.5*(-10.5185699944382+-7.92507472635013)

variable C45all equal 0.5*(-11.8012796181445+-11.7599723290595)
variable C46all equal 0.5*(-1.1148780447419+-0.72786648235353)
variable C56all equal 0.5*(-1.0830253829697+0.411722639378794)

print "========================================="
=========================================
print "Components of the Elastic Constant Tensor"
Components of the Elastic Constant Tensor
print "========================================="
=========================================

Elastic Constant C11all = 104.659513408121 GPa
Elastic Constant C22all = 106.137326489846 GPa
Elastic Constant C33all = 81.9907998252801 GPa

Elastic Constant C12all = 42.2596955228461 GPa
Elastic Constant C13all = 29.2518460748826 GPa
Elastic Constant C23all = 33.2211059641148 GPa

Elastic Constant C44all = 31.2483059257515 GPa
Elastic Constant C55all = 24.5877316042051 GPa
Elastic Constant C66all = 39.8038263495399 GPa

Elastic Constant C14all = -0.270245367878675 GPa
Elastic Constant C15all = 1.9362543267976 GPa
Elastic Constant C16all = -5.05624179622083 GPa

Elastic Constant C24all = 3.27274857579008 GPa
Elastic Constant C25all = 1.99385730127649 GPa
Elastic Constant C26all = -9.82939539136139 GPa

Elastic Constant C34all = 0.072298161833975 GPa
Elastic Constant C35all = 4.24133672576441 GPa
Elastic Constant C36all = -9.22182236039417 GPa

Elastic Constant C45all = -11.780625973602 GPa
Elastic Constant C46all = -0.921372263547715 GPa
Elastic Constant C56all = -0.335651371795453 GPa

print " "

print "Cij tensor matrix"
Cij tensor matrix
print " "

write_restart restart2
System init for write_restart ...
