LAMMPS (29 Sep 2021 - Update 2)
# Compute elastic constant tensor for a crystal at finite temperature
#
# WARNING: This script attempts to measure small differences in
# statistical averages generated by finite temperature MD simulations.
# This creates many more opportunities for errors to occur, compared
# to the zero temperature version provided in examples/ELASTIC.
# Hence, it is always a good idea to start with the zero temperature
# calculation, before attempting to use this script.
#
# Written by Aidan Thompson (Sandia, athomps@sandia.gov)
#
#  This script uses the following three include files.
#
#   init.mod      (must be modified for different crystal structures)
# 	       	  Define units, MD parameters, deformation parameters,
#		  and initial configuration of the atoms and simulation cell.
#
#
#   potential.mod    (must be modified for different pair styles)
# 		     Define pair style and other attributes
#		     not stored in restart file
#
#
#   displace.mod    (displace.mod should not need to be modified)
# 		    Perform positive and negative box displacements
# 		    It uses the resultant changes
#		    in stress to compute one
# 		    row of the elastic stiffness tensor
#
#		    Inputs variables:
#		    	   dir = the Voigt deformation component
#		    		    (1,2,3,4,5,6)
#		    Global constants:
#       	    	   up = the deformation magnitude (strain units)
#       		   cfac = conversion from LAMMPS pressure units to
#               	   output units for elastic constants
#
#
#  To run this on a different system, it should only be necessary to
#  modify the files init.mod and potential.mod. In order to calculate
#  the elastic constants correctly, care must be taken to specify
#  the correct units in init.mod (units, cfac and cunits). It is also
#  important to verify that the MD sampling of stress components
#  is generating accurate statistical averages.
#  One indication of this is that the elastic constants are insensitive
#  check for finite size effects.
#

# include init.mod

# NOTE: This script can be modified for different atomic structures,
# units, etc. See in.elastic for more info.
#

# Define the finite deformation size. Try several values of this
# variable to verify that results do not depend on it.
variable up equal 2.0e-2

# real units, elastic constants in GPa
units		metal
atom_style atomic
variable cfac equal 1.0e-4
variable cunits string GPa

# Define MD parameters
variable nevery equal 10                  # sampling interval
variable nrepeat equal 10                 # number of samples
variable nfreq equal 10*10
variable nthermo equal 100
variable nequil equal 10*100
variable nrun equal 3*100
variable temp equal 300                   # temperature of initial sample
variable timestep equal 0.0001             # timestep
variable adiabatic equal 2                # adiabatic (1) or isothermal (2)
variable tdamp equal 0.008                 # time constant for thermostat
variable seed equal 123457                # seed for thermostat

# generate the box and atom positions using a diamond lattice
variable a equal 5.431

boundary	p p p
newton off

box tilt large
read_data tob9_ref_deepmd.data
Reading data file ...
  triclinic box = (0.0000000 0.0000000 0.0000000) to (11.114968 7.4513556 9.3746986) with tilt (-0.17419075 -0.15353827 -1.9248620)
  reading atoms ...
  62 atoms

pair_style	nequip
pair_coeff	* * tob9_l3-deployed.pth Ca H O Si
mass            1 40.079800
mass            4 28.08500
mass            3 15.9994
mass            2 1.00794

change_box all triclinic
Changing box ...
  triclinic box = (0.0000000 0.0000000 0.0000000) to (11.114968 7.4513556 9.3746986) with tilt (-0.17419075 -0.15353827 -1.9248620)

velocity	all create 300 87287

thermo 100
min_style cg
minimize 1.0e-15 1.0e-15 100000 100000 #设置能量最小化
  update every 1 steps, delay 0 steps, check yes
Step Temp E_pair E_mol TotEng Press
0          300   -451.11508            0   -448.74962    23229.612
Loop time of 21.3774 on 1 procs for 45 steps with 62 atoms

Minimization stats:
  Stopping criterion = energy tolerance
  Energy initial, next-to-last, final =
  Force two-norm initial, final = 21.368530 0.047583527
  Force max component initial, final = 7.2417874 0.010395684
  Final line search alpha, max atom move = 1.0000000 0.010395684
  Iterations, force evaluations = 45 89

thermo_style  custom step temp press etotal lx ly lz xy yz xz pxx pyy pzz

#timestep 0.0001

#fix 456 all nve
#fix 567 all langevin 300.0 300.0 0.1 12345

#run 5000

#unfix 456
#unfix 567
fix 123 all npt temp 300 300 0.1 iso 1.0 1.0 0.1
run 10000
Step Temp Press TotEng Lx Ly Lz Xy Yz Xz Pxx Pyy Pzz
45          300    3879.6112   -454.09716    11.114968    7.4513556    9.3746986  -0.17419075    -1.924862  -0.15353827    11863.419   -7416.4598    7191.8748
Averages over the last 51 of 102 rows, steps 5100 to 10045:
Temp Press TotEng Lx Ly Lz Xy Yz Xz Pxx Pyy Pzz
294.23 -2185.61 -451.61 11.1566 7.47927 9.40981 -0.174843 -1.93207 -0.154113 8357.93 -20642.6 5727.79
Loop time of 1659.74 on 1 procs for 10000 steps with 62 atoms

unfix 123

# Compute initial state

variable thermostat equal 0
include potential.mod
# NOTE: This script can be modified for different pair styles
# See in.elastic for more info.

# we must undefine any fix ave/* fix before using reset_timestep
if "$(is_defined(fix,avp))" then "unfix avp"
reset_timestep 0

newton off

# Choose potential
# pair_style	sw
# pair_coeff * * Si.sw Si
pair_style	nequip
pair_coeff	* * tob9_l3-deployed.pth Ca H O Si

atom_modify sort 0 0.0
#kspace_style	ewald 1.0e-6# Setup neighbor style

neighbor 2.0 bin
neigh_modify once no every 1 delay 0 check yes

# Setup output

fix avp all ave/time  10 10 100 c_thermo_press mode vector

#min_style cg
#minimize 1.0e-15 1.0e-15 100000 100000 #设置能量最小化

thermo		100
thermo_style custom step temp pe press f_avp[1] f_avp[2] f_avp[3] f_avp[4] f_avp[5] f_avp[6]
thermo_modify norm no

# Setup MD

timestep 0.0001
fix 4 all nve

run 1000
Step Temp PotEng Press f_avp[1] f_avp[2] f_avp[3] f_avp[4] f_avp[5] f_avp[6]
0    343.04595   -453.87839   -6266.8334            0            0            0            0            0            0
Averages over the last 6 of 11 rows, steps 500 to 1000:
Temp PotEng Press f_avp[1] f_avp[2] f_avp[3] f_avp[4] f_avp[5] f_avp[6]
321.414 -453.708 -1912.45 7552.42 -17362.5 3934.24 9768.2 -173.06 -2909.17
Loop time of 170.566 on 1 procs for 1000 steps with 62 atoms

variable thermostat equal 1

print 1
1

include potential.mod
# NOTE: This script can be modified for different pair styles
# See in.elastic for more info.

# we must undefine any fix ave/* fix before using reset_timestep
if "$(is_defined(fix,avp))" then "unfix avp"
unfix avp
reset_timestep 0

newton off

# Choose potential
# pair_style	sw
# pair_coeff * * Si.sw Si
pair_style	nequip
pair_coeff	* * tob9_l3-deployed.pth Ca H O Si

atom_modify sort 0 0.0
#kspace_style	ewald 1.0e-6# Setup neighbor style

neighbor 2.0 bin
neigh_modify once no every 1 delay 0 check yes

# Setup output

fix avp all ave/time  10 10 100 c_thermo_press mode vector

#min_style cg
#minimize 1.0e-15 1.0e-15 100000 100000 #设置能量最小化

thermo		100
thermo_style custom step temp pe press f_avp[1] f_avp[2] f_avp[3] f_avp[4] f_avp[5] f_avp[6]
thermo_modify norm no

# Setup MD

timestep 0.0001
fix 4 all nve
fix 5 all langevin 300 300 0.008 123457

run 300
Step Temp PotEng Press f_avp[1] f_avp[2] f_avp[3] f_avp[4] f_avp[5] f_avp[6]
0    303.46289   -453.56647   -4174.4965            0            0            0            0            0            0
Loop time of 54.9302 on 1 procs for 300 steps with 62 atoms

variable pxx0 equal f_avp[1]
variable pyy0 equal f_avp[2]
variable pzz0 equal f_avp[3]
variable pxy0 equal f_avp[4]
variable pxz0 equal f_avp[5]
variable pyz0 equal f_avp[6]

variable tmp equal lx
variable lx0 equal 11.171740075426
variable tmp equal ly
variable ly0 equal 7.48941479754596
variable tmp equal lz
variable lz0 equal 9.42258167658589

# These formulas define the derivatives w.r.t. strain components
# Constants uses $, variables use v_
variable d1 equal -(v_pxx1-2869.51205794601)/(v_delta/v_len0)*0.0001
variable d2 equal -(v_pyy1--25018.9559128545)/(v_delta/v_len0)*0.0001
variable d3 equal -(v_pzz1-11333.664536759)/(v_delta/v_len0)*0.0001
variable d4 equal -(v_pyz1-6133.11368338162)/(v_delta/v_len0)*0.0001
variable d5 equal -(v_pxz1-2461.14926334424)/(v_delta/v_len0)*0.0001
variable d6 equal -(v_pxy1-10665.4599304907)/(v_delta/v_len0)*0.0001

# Write restart
write_restart restart.equil
System init for write_restart ...

# uxx Perturbation

variable dir equal 1
include displace.mod
# NOTE: This script should not need to be
# modified. See in.elastic for more info.
#
# Find which reference length to use

variable len0 equal 11.171740075426

# Reset box and simulation parameters

clear
box tilt large
read_restart restart.equil
Reading restart file ...
  restart file = 29 Sep 2021, LAMMPS = 29 Sep 2021
  restoring atom style atomic from restart
  triclinic box = (-0.028385922 -0.019029618 -0.023941541) to (11.143354 7.4703852 9.3986401) with tilt (-0.17508046 -0.15432250 -1.9346936)
  pair style nequip stores no restart info
  62 atoms
  read_restart CPU = 0.000 seconds
include potential.mod
# NOTE: This script can be modified for different pair styles
# See in.elastic for more info.

# we must undefine any fix ave/* fix before using reset_timestep
if "$(is_defined(fix,avp))" then "unfix avp"
reset_timestep 0

newton off

# Choose potential
# pair_style	sw
# pair_coeff * * Si.sw Si
pair_style	nequip
pair_coeff	* * tob9_l3-deployed.pth Ca H O Si

atom_modify sort 0 0.0
#kspace_style	ewald 1.0e-6# Setup neighbor style

neighbor 2.0 bin
neigh_modify once no every 1 delay 0 check yes

# Setup output

fix avp all ave/time  10 10 100 c_thermo_press mode vector

#min_style cg
#minimize 1.0e-15 1.0e-15 100000 100000 #设置能量最小化

thermo		100
thermo_style custom step temp pe press f_avp[1] f_avp[2] f_avp[3] f_avp[4] f_avp[5] f_avp[6]
thermo_modify norm no

# Setup MD

timestep 0.0001
fix 4 all nve
fix 5 all langevin 300 300 0.008 123457

# Negative deformation

variable delta equal -0.02*11.171740075426
variable deltaxy equal -0.02*xy
variable deltaxz equal -0.02*xz
variable deltayz equal -0.02*yz
change_box all x delta 0 -0.22343480150852 xy delta 0.00350160929648113 xz delta 0.00308644996367088 remap units box
Changing box ...
  triclinic box = (-0.028385922 -0.019029618 -0.023941541) to (10.919919 7.4703852 9.3986401) with tilt (-0.17508046 -0.15432250 -1.9346936)
  triclinic box = (-0.028385922 -0.019029618 -0.023941541) to (10.919919 7.4703852 9.3986401) with tilt (-0.17157886 -0.15432250 -1.9346936)
  triclinic box = (-0.028385922 -0.019029618 -0.023941541) to (10.919919 7.4703852 9.3986401) with tilt (-0.17157886 -0.15123605 -1.9346936)

# Run MD

run 1000
  update every 1 steps, delay 0 steps, check yes
Step Temp PotEng Press f_avp[1] f_avp[2] f_avp[3] f_avp[4] f_avp[5] f_avp[6]
0    317.04817   -453.67355    27783.261            0            0            0            0            0            0
Averages over the last 6 of 11 rows, steps 500 to 1000:
Temp PotEng Press f_avp[1] f_avp[2] f_avp[3] f_avp[4] f_avp[5] f_avp[6]
291.199 -453.576 14811.1 39458.1 -7519.01 14160.3 16629.9 -3074.98 4065.43
Loop time of 174.544 on 1 procs for 1000 steps with 62 atoms

include potential.mod
# NOTE: This script can be modified for different pair styles
# See in.elastic for more info.

# we must undefine any fix ave/* fix before using reset_timestep
if "$(is_defined(fix,avp))" then "unfix avp"
unfix avp
reset_timestep 0

newton off

# Choose potential
# pair_style	sw
# pair_coeff * * Si.sw Si
pair_style	nequip
pair_coeff	* * tob9_l3-deployed.pth Ca H O Si

atom_modify sort 0 0.0
#kspace_style	ewald 1.0e-6# Setup neighbor style

neighbor 2.0 bin
neigh_modify once no every 1 delay 0 check yes

# Setup output

fix avp all ave/time  10 10 100 c_thermo_press mode vector

#min_style cg
#minimize 1.0e-15 1.0e-15 100000 100000 #设置能量最小化

thermo		100
thermo_style custom step temp pe press f_avp[1] f_avp[2] f_avp[3] f_avp[4] f_avp[5] f_avp[6]
thermo_modify norm no

# Setup MD

timestep 0.0001
fix 4 all nve
fix 5 all langevin 300 300 0.008 123457

run 300
Step Temp PotEng Press f_avp[1] f_avp[2] f_avp[3] f_avp[4] f_avp[5] f_avp[6]
0     261.3936    -453.4465    4045.6333            0            0            0            0            0            0
Loop time of 52.9858 on 1 procs for 300 steps with 62 atoms

# Obtain new stress tensor

variable pxx1 equal f_avp[1]
variable pyy1 equal f_avp[2]
variable pzz1 equal f_avp[3]
variable pxy1 equal f_avp[4]
variable pxz1 equal f_avp[5]
variable pyz1 equal f_avp[6]

# Compute elastic constant from pressure tensor

variable C1neg equal 185.937287519707
variable C2neg equal 60.626700974668
variable C3neg equal -1.98839350187451
variable C4neg equal -11.3593428693005
variable C5neg equal -22.5928248409475
variable C6neg equal 3.668012957215

# Reset box and simulation parameters

clear
box tilt large
read_restart restart.equil
Reading restart file ...
  restart file = 29 Sep 2021, LAMMPS = 29 Sep 2021
  restoring atom style atomic from restart
  triclinic box = (-0.028385922 -0.019029618 -0.023941541) to (11.143354 7.4703852 9.3986401) with tilt (-0.17508046 -0.15432250 -1.9346936)
  pair style nequip stores no restart info
  62 atoms
  read_restart CPU = 0.000 seconds
include potential.mod
# NOTE: This script can be modified for different pair styles
# See in.elastic for more info.

# we must undefine any fix ave/* fix before using reset_timestep
if "$(is_defined(fix,avp))" then "unfix avp"
reset_timestep 0

newton off

# Choose potential
# pair_style	sw
# pair_coeff * * Si.sw Si
pair_style	nequip
pair_coeff	* * tob9_l3-deployed.pth Ca H O Si

atom_modify sort 0 0.0
#kspace_style	ewald 1.0e-6# Setup neighbor style

neighbor 2.0 bin
neigh_modify once no every 1 delay 0 check yes

# Setup output

fix avp all ave/time  10 10 100 c_thermo_press mode vector

#min_style cg
#minimize 1.0e-15 1.0e-15 100000 100000 #设置能量最小化

thermo		100
thermo_style custom step temp pe press f_avp[1] f_avp[2] f_avp[3] f_avp[4] f_avp[5] f_avp[6]
thermo_modify norm no

# Setup MD

timestep 0.0001
fix 4 all nve
fix 5 all langevin 300 300 0.008 123457

# Positive deformation

variable delta equal 0.02*11.171740075426
variable deltaxy equal 0.02*xy
variable deltaxz equal 0.02*xz
variable deltayz equal 0.02*yz
change_box all x delta 0 0.22343480150852 xy delta -0.00350160929648113 xz delta -0.00308644996367088 remap units box
Changing box ...
  triclinic box = (-0.028385922 -0.019029618 -0.023941541) to (11.366789 7.4703852 9.3986401) with tilt (-0.17508046 -0.15432250 -1.9346936)
  triclinic box = (-0.028385922 -0.019029618 -0.023941541) to (11.366789 7.4703852 9.3986401) with tilt (-0.17858207 -0.15432250 -1.9346936)
  triclinic box = (-0.028385922 -0.019029618 -0.023941541) to (11.366789 7.4703852 9.3986401) with tilt (-0.17858207 -0.15740895 -1.9346936)

# Run MD

run 1000
  update every 1 steps, delay 0 steps, check yes
Step Temp PotEng Press f_avp[1] f_avp[2] f_avp[3] f_avp[4] f_avp[5] f_avp[6]
0    317.04817    -453.6777   -35005.761            0            0            0            0            0            0
Averages over the last 6 of 11 rows, steps 500 to 1000:
Temp PotEng Press f_avp[1] f_avp[2] f_avp[3] f_avp[4] f_avp[5] f_avp[6]
290.657 -453.596 -18026.3 -24328.2 -27924.2 -289.704 14179.2 -305.462 3658.46
Loop time of 168.503 on 1 procs for 1000 steps with 62 atoms

include potential.mod
# NOTE: This script can be modified for different pair styles
# See in.elastic for more info.

# we must undefine any fix ave/* fix before using reset_timestep
if "$(is_defined(fix,avp))" then "unfix avp"
unfix avp
reset_timestep 0

newton off

# Choose potential
# pair_style	sw
# pair_coeff * * Si.sw Si
pair_style	nequip
pair_coeff	* * tob9_l3-deployed.pth Ca H O Si

atom_modify sort 0 0.0
#kspace_style	ewald 1.0e-6# Setup neighbor style

neighbor 2.0 bin
neigh_modify once no every 1 delay 0 check yes

# Setup output

fix avp all ave/time  10 10 100 c_thermo_press mode vector

#min_style cg
#minimize 1.0e-15 1.0e-15 100000 100000 #设置能量最小化

thermo		100
thermo_style custom step temp pe press f_avp[1] f_avp[2] f_avp[3] f_avp[4] f_avp[5] f_avp[6]
thermo_modify norm no

# Setup MD

timestep 0.0001
fix 4 all nve
fix 5 all langevin 300 300 0.008 123457

run 300
Step Temp PotEng Press f_avp[1] f_avp[2] f_avp[3] f_avp[4] f_avp[5] f_avp[6]
0     261.7401   -453.43216   -28484.937            0            0            0            0            0            0
Loop time of 54.1511 on 1 procs for 300 steps with 62 atoms

# Obtain new stress tensor

variable pxx1 equal f_avp[1]
variable pyy1 equal f_avp[2]
variable pzz1 equal f_avp[3]
variable pxy1 equal f_avp[4]
variable pxz1 equal f_avp[5]
variable pyz1 equal f_avp[6]

# Compute elastic constant from pressure tensor

variable C1pos equal 123.419226216208
variable C2pos equal 36.9879435933885
variable C3pos equal 71.5259755598223
variable C4pos equal 16.4858721335047
variable C5pos equal 8.95454070644353
variable C6pos equal 7.4032455797781

# Combine positive and negative

variable C11 equal 0.5*(185.937287519707+123.419226216208)
variable C21 equal 0.5*(60.626700974668+36.9879435933885)
variable C31 equal 0.5*(-1.98839350187451+71.5259755598223)
variable C41 equal 0.5*(-11.3593428693005+16.4858721335047)
variable C51 equal 0.5*(-22.5928248409475+8.95454070644353)
variable C61 equal 0.5*(3.668012957215+7.4032455797781)

# Delete dir to make sure it is not reused

variable dir delete

# uyy Perturbation

variable dir equal 2
include displace.mod
# NOTE: This script should not need to be
# modified. See in.elastic for more info.
#
# Find which reference length to use

variable len0 equal 7.48941479754596

# Reset box and simulation parameters

clear
box tilt large
read_restart restart.equil
Reading restart file ...
  restart file = 29 Sep 2021, LAMMPS = 29 Sep 2021
  restoring atom style atomic from restart
  triclinic box = (-0.028385922 -0.019029618 -0.023941541) to (11.143354 7.4703852 9.3986401) with tilt (-0.17508046 -0.15432250 -1.9346936)
  pair style nequip stores no restart info
  62 atoms
  read_restart CPU = 0.000 seconds
include potential.mod
# NOTE: This script can be modified for different pair styles
# See in.elastic for more info.

# we must undefine any fix ave/* fix before using reset_timestep
if "$(is_defined(fix,avp))" then "unfix avp"
reset_timestep 0

newton off

# Choose potential
# pair_style	sw
# pair_coeff * * Si.sw Si
pair_style	nequip
pair_coeff	* * tob9_l3-deployed.pth Ca H O Si

atom_modify sort 0 0.0
#kspace_style	ewald 1.0e-6# Setup neighbor style

neighbor 2.0 bin
neigh_modify once no every 1 delay 0 check yes

# Setup output

fix avp all ave/time  10 10 100 c_thermo_press mode vector

#min_style cg
#minimize 1.0e-15 1.0e-15 100000 100000 #设置能量最小化

thermo		100
thermo_style custom step temp pe press f_avp[1] f_avp[2] f_avp[3] f_avp[4] f_avp[5] f_avp[6]
thermo_modify norm no

# Setup MD

timestep 0.0001
fix 4 all nve
fix 5 all langevin 300 300 0.008 123457

# Negative deformation

variable delta equal -0.02*7.48941479754596
variable deltaxy equal -0.02*xy
variable deltaxz equal -0.02*xz
variable deltayz equal -0.02*yz
change_box all y delta 0 -0.149788295950919 yz delta 0.038693871078448 remap units box
Changing box ...
  triclinic box = (-0.028385922 -0.019029618 -0.023941541) to (11.143354 7.3205969 9.3986401) with tilt (-0.17508046 -0.15432250 -1.9346936)
  triclinic box = (-0.028385922 -0.019029618 -0.023941541) to (11.143354 7.3205969 9.3986401) with tilt (-0.17508046 -0.15432250 -1.8959997)

# Run MD

run 1000
  update every 1 steps, delay 0 steps, check yes
Step Temp PotEng Press f_avp[1] f_avp[2] f_avp[3] f_avp[4] f_avp[5] f_avp[6]
0    317.04817   -454.03696    22355.927            0            0            0            0            0            0
Averages over the last 6 of 11 rows, steps 500 to 1000:
Temp PotEng Press f_avp[1] f_avp[2] f_avp[3] f_avp[4] f_avp[5] f_avp[6]
291.395 -453.833 17335.2 17118.9 19642.8 17266.2 15493.4 -4134.86 4204.3
Loop time of 172.112 on 1 procs for 1000 steps with 62 atoms

include potential.mod
# NOTE: This script can be modified for different pair styles
# See in.elastic for more info.

# we must undefine any fix ave/* fix before using reset_timestep
if "$(is_defined(fix,avp))" then "unfix avp"
unfix avp
reset_timestep 0

newton off

# Choose potential
# pair_style	sw
# pair_coeff * * Si.sw Si
pair_style	nequip
pair_coeff	* * tob9_l3-deployed.pth Ca H O Si

atom_modify sort 0 0.0
#kspace_style	ewald 1.0e-6# Setup neighbor style

neighbor 2.0 bin
neigh_modify once no every 1 delay 0 check yes

# Setup output

fix avp all ave/time  10 10 100 c_thermo_press mode vector

#min_style cg
#minimize 1.0e-15 1.0e-15 100000 100000 #设置能量最小化

thermo		100
thermo_style custom step temp pe press f_avp[1] f_avp[2] f_avp[3] f_avp[4] f_avp[5] f_avp[6]
thermo_modify norm no

# Setup MD

timestep 0.0001
fix 4 all nve
fix 5 all langevin 300 300 0.008 123457

run 300
Step Temp PotEng Press f_avp[1] f_avp[2] f_avp[3] f_avp[4] f_avp[5] f_avp[6]
0    262.27821   -453.71014    6011.3054            0            0            0            0            0            0
Loop time of 53.1241 on 1 procs for 300 steps with 62 atoms

# Obtain new stress tensor

variable pxx1 equal f_avp[1]
variable pyy1 equal f_avp[2]
variable pzz1 equal f_avp[3]
variable pxy1 equal f_avp[4]
variable pxz1 equal f_avp[5]
variable pyz1 equal f_avp[6]

# Compute elastic constant from pressure tensor

variable C1neg equal 78.2894978819381
variable C2neg equal 181.474690667428
variable C3neg equal 9.691427718096
variable C4neg equal -11.0326705797774
variable C5neg equal -28.3359692068913
variable C6neg equal -1.91923091743651

# Reset box and simulation parameters

clear
box tilt large
read_restart restart.equil
Reading restart file ...
  restart file = 29 Sep 2021, LAMMPS = 29 Sep 2021
  restoring atom style atomic from restart
  triclinic box = (-0.028385922 -0.019029618 -0.023941541) to (11.143354 7.4703852 9.3986401) with tilt (-0.17508046 -0.15432250 -1.9346936)
  pair style nequip stores no restart info
  62 atoms
  read_restart CPU = 0.000 seconds
include potential.mod
# NOTE: This script can be modified for different pair styles
# See in.elastic for more info.

# we must undefine any fix ave/* fix before using reset_timestep
if "$(is_defined(fix,avp))" then "unfix avp"
reset_timestep 0

newton off

# Choose potential
# pair_style	sw
# pair_coeff * * Si.sw Si
pair_style	nequip
pair_coeff	* * tob9_l3-deployed.pth Ca H O Si

atom_modify sort 0 0.0
#kspace_style	ewald 1.0e-6# Setup neighbor style

neighbor 2.0 bin
neigh_modify once no every 1 delay 0 check yes

# Setup output

fix avp all ave/time  10 10 100 c_thermo_press mode vector

#min_style cg
#minimize 1.0e-15 1.0e-15 100000 100000 #设置能量最小化

thermo		100
thermo_style custom step temp pe press f_avp[1] f_avp[2] f_avp[3] f_avp[4] f_avp[5] f_avp[6]
thermo_modify norm no

# Setup MD

timestep 0.0001
fix 4 all nve
fix 5 all langevin 300 300 0.008 123457

# Positive deformation

variable delta equal 0.02*7.48941479754596
variable deltaxy equal 0.02*xy
variable deltaxz equal 0.02*xz
variable deltayz equal 0.02*yz
change_box all y delta 0 0.149788295950919 yz delta -0.038693871078448 remap units box
Changing box ...
  triclinic box = (-0.028385922 -0.019029618 -0.023941541) to (11.143354 7.6201735 9.3986401) with tilt (-0.17508046 -0.15432250 -1.9346936)
  triclinic box = (-0.028385922 -0.019029618 -0.023941541) to (11.143354 7.6201735 9.3986401) with tilt (-0.17508046 -0.15432250 -1.9733874)

# Run MD

run 1000
  update every 1 steps, delay 0 steps, check yes
Step Temp PotEng Press f_avp[1] f_avp[2] f_avp[3] f_avp[4] f_avp[5] f_avp[6]
0    317.04817   -453.46777   -30034.871            0            0            0            0            0            0
Averages over the last 6 of 11 rows, steps 500 to 1000:
Temp PotEng Press f_avp[1] f_avp[2] f_avp[3] f_avp[4] f_avp[5] f_avp[6]
290.685 -453.304 -20754 -3926.03 -53790.1 -3300.31 15406.6 821.563 3518.77
Loop time of 168.11 on 1 procs for 1000 steps with 62 atoms

include potential.mod
# NOTE: This script can be modified for different pair styles
# See in.elastic for more info.

# we must undefine any fix ave/* fix before using reset_timestep
if "$(is_defined(fix,avp))" then "unfix avp"
unfix avp
reset_timestep 0

newton off

# Choose potential
# pair_style	sw
# pair_coeff * * Si.sw Si
pair_style	nequip
pair_coeff	* * tob9_l3-deployed.pth Ca H O Si

atom_modify sort 0 0.0
#kspace_style	ewald 1.0e-6# Setup neighbor style

neighbor 2.0 bin
neigh_modify once no every 1 delay 0 check yes

# Setup output

fix avp all ave/time  10 10 100 c_thermo_press mode vector

#min_style cg
#minimize 1.0e-15 1.0e-15 100000 100000 #设置能量最小化

thermo		100
thermo_style custom step temp pe press f_avp[1] f_avp[2] f_avp[3] f_avp[4] f_avp[5] f_avp[6]
thermo_modify norm no

# Setup MD

timestep 0.0001
fix 4 all nve
fix 5 all langevin 300 300 0.008 123457

run 300
Step Temp PotEng Press f_avp[1] f_avp[2] f_avp[3] f_avp[4] f_avp[5] f_avp[6]
0    261.24475   -453.14066    -30686.09            0            0            0            0            0            0
Loop time of 50.6919 on 1 procs for 300 steps with 62 atoms

# Obtain new stress tensor

variable pxx1 equal f_avp[1]
variable pyy1 equal f_avp[2]
variable pzz1 equal f_avp[3]
variable pxy1 equal f_avp[4]
variable pxz1 equal f_avp[5]
variable pyz1 equal f_avp[6]

# Compute elastic constant from pressure tensor

variable C1pos equal 26.3890475552513
variable C2pos equal 152.532008460776
variable C3pos equal 83.0484529271794
variable C4pos equal 16.7109776408539
variable C5pos equal 3.0711959040622
variable C6pos equal 1.496527854742

# Combine positive and negative

variable C12 equal 0.5*(78.2894978819381+26.3890475552513)
variable C22 equal 0.5*(181.474690667428+152.532008460776)
variable C32 equal 0.5*(9.691427718096+83.0484529271794)
variable C42 equal 0.5*(-11.0326705797774+16.7109776408539)
variable C52 equal 0.5*(-28.3359692068913+3.0711959040622)
variable C62 equal 0.5*(-1.91923091743651+1.496527854742)

# Delete dir to make sure it is not reused

variable dir delete

# uzz Perturbation

variable dir equal 3
include displace.mod
# NOTE: This script should not need to be
# modified. See in.elastic for more info.
#
# Find which reference length to use

variable len0 equal 9.42258167658589

# Reset box and simulation parameters

clear
box tilt large
read_restart restart.equil
Reading restart file ...
  restart file = 29 Sep 2021, LAMMPS = 29 Sep 2021
  restoring atom style atomic from restart
  triclinic box = (-0.028385922 -0.019029618 -0.023941541) to (11.143354 7.4703852 9.3986401) with tilt (-0.17508046 -0.15432250 -1.9346936)
  pair style nequip stores no restart info
  62 atoms
  read_restart CPU = 0.001 seconds
include potential.mod
# NOTE: This script can be modified for different pair styles
# See in.elastic for more info.

# we must undefine any fix ave/* fix before using reset_timestep
if "$(is_defined(fix,avp))" then "unfix avp"
reset_timestep 0

newton off

# Choose potential
# pair_style	sw
# pair_coeff * * Si.sw Si
pair_style	nequip
pair_coeff	* * tob9_l3-deployed.pth Ca H O Si

atom_modify sort 0 0.0
#kspace_style	ewald 1.0e-6# Setup neighbor style

neighbor 2.0 bin
neigh_modify once no every 1 delay 0 check yes

# Setup output

fix avp all ave/time  10 10 100 c_thermo_press mode vector

#min_style cg
#minimize 1.0e-15 1.0e-15 100000 100000 #设置能量最小化

thermo		100
thermo_style custom step temp pe press f_avp[1] f_avp[2] f_avp[3] f_avp[4] f_avp[5] f_avp[6]
thermo_modify norm no

# Setup MD

timestep 0.0001
fix 4 all nve
fix 5 all langevin 300 300 0.008 123457

# Negative deformation

variable delta equal -0.02*9.42258167658589
variable deltaxy equal -0.02*xy
variable deltaxz equal -0.02*xz
variable deltayz equal -0.02*yz
change_box all z delta 0 -0.188451633531718 remap units box
Changing box ...
  triclinic box = (-0.028385922 -0.019029618 -0.023941541) to (11.143354 7.4703852 9.2101885) with tilt (-0.17508046 -0.15432250 -1.9346936)

# Run MD

run 1000
  update every 1 steps, delay 0 steps, check yes
Step Temp PotEng Press f_avp[1] f_avp[2] f_avp[3] f_avp[4] f_avp[5] f_avp[6]
0    317.04817   -453.69312    23360.021            0            0            0            0            0            0
Averages over the last 6 of 11 rows, steps 500 to 1000:
Temp PotEng Press f_avp[1] f_avp[2] f_avp[3] f_avp[4] f_avp[5] f_avp[6]
291.997 -453.659 11581.3 13337.8 -8145.55 31755.2 16367.4 -1193.16 4228.75
Loop time of 171.608 on 1 procs for 1000 steps with 62 atoms

include potential.mod
# NOTE: This script can be modified for different pair styles
# See in.elastic for more info.

# we must undefine any fix ave/* fix before using reset_timestep
if "$(is_defined(fix,avp))" then "unfix avp"
unfix avp
reset_timestep 0

newton off

# Choose potential
# pair_style	sw
# pair_coeff * * Si.sw Si
pair_style	nequip
pair_coeff	* * tob9_l3-deployed.pth Ca H O Si

atom_modify sort 0 0.0
#kspace_style	ewald 1.0e-6# Setup neighbor style

neighbor 2.0 bin
neigh_modify once no every 1 delay 0 check yes

# Setup output

fix avp all ave/time  10 10 100 c_thermo_press mode vector

#min_style cg
#minimize 1.0e-15 1.0e-15 100000 100000 #设置能量最小化

thermo		100
thermo_style custom step temp pe press f_avp[1] f_avp[2] f_avp[3] f_avp[4] f_avp[5] f_avp[6]
thermo_modify norm no

# Setup MD

timestep 0.0001
fix 4 all nve
fix 5 all langevin 300 300 0.008 123457

run 300
Step Temp PotEng Press f_avp[1] f_avp[2] f_avp[3] f_avp[4] f_avp[5] f_avp[6]
0     264.3835   -453.53799   -95.675144            0            0            0            0            0            0
Loop time of 55.0971 on 1 procs for 300 steps with 62 atoms

# Obtain new stress tensor

variable pxx1 equal f_avp[1]
variable pyy1 equal f_avp[2]
variable pzz1 equal f_avp[3]
variable pxy1 equal f_avp[4]
variable pxz1 equal f_avp[5]
variable pyz1 equal f_avp[6]

# Compute elastic constant from pressure tensor

variable C1neg equal 59.0590145416894
variable C2neg equal 52.0736749754659
variable C3neg equal 74.5461089002114
variable C4neg equal -12.2701386546209
variable C5neg equal -13.2343061763799
variable C6neg equal 3.0508800780025

# Reset box and simulation parameters

clear
box tilt large
read_restart restart.equil
Reading restart file ...
  restart file = 29 Sep 2021, LAMMPS = 29 Sep 2021
  restoring atom style atomic from restart
  triclinic box = (-0.028385922 -0.019029618 -0.023941541) to (11.143354 7.4703852 9.3986401) with tilt (-0.17508046 -0.15432250 -1.9346936)
  pair style nequip stores no restart info
  62 atoms
  read_restart CPU = 0.002 seconds
include potential.mod
# NOTE: This script can be modified for different pair styles
# See in.elastic for more info.

# we must undefine any fix ave/* fix before using reset_timestep
if "$(is_defined(fix,avp))" then "unfix avp"
reset_timestep 0

newton off

# Choose potential
# pair_style	sw
# pair_coeff * * Si.sw Si
pair_style	nequip
pair_coeff	* * tob9_l3-deployed.pth Ca H O Si

atom_modify sort 0 0.0
#kspace_style	ewald 1.0e-6# Setup neighbor style

neighbor 2.0 bin
neigh_modify once no every 1 delay 0 check yes

# Setup output

fix avp all ave/time  10 10 100 c_thermo_press mode vector

#min_style cg
#minimize 1.0e-15 1.0e-15 100000 100000 #设置能量最小化

thermo		100
thermo_style custom step temp pe press f_avp[1] f_avp[2] f_avp[3] f_avp[4] f_avp[5] f_avp[6]
thermo_modify norm no

# Setup MD

timestep 0.0001
fix 4 all nve
fix 5 all langevin 300 300 0.008 123457

# Positive deformation

variable delta equal 0.02*9.42258167658589
variable deltaxy equal 0.02*xy
variable deltaxz equal 0.02*xz
variable deltayz equal 0.02*yz
change_box all z delta 0 0.188451633531718 remap units box
Changing box ...
  triclinic box = (-0.028385922 -0.019029618 -0.023941541) to (11.143354 7.4703852 9.5870918) with tilt (-0.17508046 -0.15432250 -1.9346936)

# Run MD

run 1000
  update every 1 steps, delay 0 steps, check yes
Step Temp PotEng Press f_avp[1] f_avp[2] f_avp[3] f_avp[4] f_avp[5] f_avp[6]
0    317.04817   -453.79929   -31041.591            0            0            0            0            0            0
Averages over the last 6 of 11 rows, steps 500 to 1000:
Temp PotEng Press f_avp[1] f_avp[2] f_avp[3] f_avp[4] f_avp[5] f_avp[6]
290.337 -453.63 -14943.5 -1265.97 -28065.5 -14441.1 14710.4 -1496.28 3432.58
Loop time of 167.816 on 1 procs for 1000 steps with 62 atoms

include potential.mod
# NOTE: This script can be modified for different pair styles
# See in.elastic for more info.

# we must undefine any fix ave/* fix before using reset_timestep
if "$(is_defined(fix,avp))" then "unfix avp"
unfix avp
reset_timestep 0

newton off

# Choose potential
# pair_style	sw
# pair_coeff * * Si.sw Si
pair_style	nequip
pair_coeff	* * tob9_l3-deployed.pth Ca H O Si

atom_modify sort 0 0.0
#kspace_style	ewald 1.0e-6# Setup neighbor style

neighbor 2.0 bin
neigh_modify once no every 1 delay 0 check yes

# Setup output

fix avp all ave/time  10 10 100 c_thermo_press mode vector

#min_style cg
#minimize 1.0e-15 1.0e-15 100000 100000 #设置能量最小化

thermo		100
thermo_style custom step temp pe press f_avp[1] f_avp[2] f_avp[3] f_avp[4] f_avp[5] f_avp[6]
thermo_modify norm no

# Setup MD

timestep 0.0001
fix 4 all nve
fix 5 all langevin 300 300 0.008 123457

run 300
Step Temp PotEng Press f_avp[1] f_avp[2] f_avp[3] f_avp[4] f_avp[5] f_avp[6]
0    259.20951   -453.47336   -24503.965            0            0            0            0            0            0
Loop time of 54.2755 on 1 procs for 300 steps with 62 atoms

# Obtain new stress tensor

variable pxx1 equal f_avp[1]
variable pyy1 equal f_avp[2]
variable pzz1 equal f_avp[3]
variable pxy1 equal f_avp[4]
variable pxz1 equal f_avp[5]
variable pyz1 equal f_avp[6]

# Compute elastic constant from pressure tensor

variable C1pos equal 12.8225696539698
variable C2pos equal 32.700806087784
variable C3pos equal 128.249588402137
variable C4pos equal 16.2608247797284
variable C5pos equal 15.7959678034108
variable C6pos equal 5.64391245214025

# Combine positive and negative

variable C13 equal 0.5*(59.0590145416894+12.8225696539698)
variable C23 equal 0.5*(52.0736749754659+32.700806087784)
variable C33 equal 0.5*(74.5461089002114+128.249588402137)
variable C43 equal 0.5*(-12.2701386546209+16.2608247797284)
variable C53 equal 0.5*(-13.2343061763799+15.7959678034108)
variable C63 equal 0.5*(3.0508800780025+5.64391245214025)

# Delete dir to make sure it is not reused

variable dir delete

# uyz Perturbation

variable dir equal 4
include displace.mod
# NOTE: This script should not need to be
# modified. See in.elastic for more info.
#
# Find which reference length to use

variable len0 equal 9.42258167658589

# Reset box and simulation parameters

clear
box tilt large
read_restart restart.equil
Reading restart file ...
  restart file = 29 Sep 2021, LAMMPS = 29 Sep 2021
  restoring atom style atomic from restart
  triclinic box = (-0.028385922 -0.019029618 -0.023941541) to (11.143354 7.4703852 9.3986401) with tilt (-0.17508046 -0.15432250 -1.9346936)
  pair style nequip stores no restart info
  62 atoms
  read_restart CPU = 0.002 seconds
include potential.mod
# NOTE: This script can be modified for different pair styles
# See in.elastic for more info.

# we must undefine any fix ave/* fix before using reset_timestep
if "$(is_defined(fix,avp))" then "unfix avp"
reset_timestep 0

newton off

# Choose potential
# pair_style	sw
# pair_coeff * * Si.sw Si
pair_style	nequip
pair_coeff	* * tob9_l3-deployed.pth Ca H O Si

atom_modify sort 0 0.0
#kspace_style	ewald 1.0e-6# Setup neighbor style

neighbor 2.0 bin
neigh_modify once no every 1 delay 0 check yes

# Setup output

fix avp all ave/time  10 10 100 c_thermo_press mode vector

#min_style cg
#minimize 1.0e-15 1.0e-15 100000 100000 #设置能量最小化

thermo		100
thermo_style custom step temp pe press f_avp[1] f_avp[2] f_avp[3] f_avp[4] f_avp[5] f_avp[6]
thermo_modify norm no

# Setup MD

timestep 0.0001
fix 4 all nve
fix 5 all langevin 300 300 0.008 123457

# Negative deformation

variable delta equal -0.02*9.42258167658589
variable deltaxy equal -0.02*xy
variable deltaxz equal -0.02*xz
variable deltayz equal -0.02*yz
change_box all yz delta -0.188451633531718 remap units box
Changing box ...
  triclinic box = (-0.028385922 -0.019029618 -0.023941541) to (11.143354 7.4703852 9.3986401) with tilt (-0.17508046 -0.15432250 -2.1231452)

# Run MD

run 1000
  update every 1 steps, delay 0 steps, check yes
Step Temp PotEng Press f_avp[1] f_avp[2] f_avp[3] f_avp[4] f_avp[5] f_avp[6]
0    317.04817   -453.88895    -5444.797            0            0            0            0            0            0
Averages over the last 6 of 11 rows, steps 500 to 1000:
Temp PotEng Press f_avp[1] f_avp[2] f_avp[3] f_avp[4] f_avp[5] f_avp[6]
291.626 -453.663 -2431.77 5913.38 -18760.3 7079.26 14447.6 -1283.75 13706.4
Loop time of 169.641 on 1 procs for 1000 steps with 62 atoms

include potential.mod
# NOTE: This script can be modified for different pair styles
# See in.elastic for more info.

# we must undefine any fix ave/* fix before using reset_timestep
if "$(is_defined(fix,avp))" then "unfix avp"
unfix avp
reset_timestep 0

newton off

# Choose potential
# pair_style	sw
# pair_coeff * * Si.sw Si
pair_style	nequip
pair_coeff	* * tob9_l3-deployed.pth Ca H O Si

atom_modify sort 0 0.0
#kspace_style	ewald 1.0e-6# Setup neighbor style

neighbor 2.0 bin
neigh_modify once no every 1 delay 0 check yes

# Setup output

fix avp all ave/time  10 10 100 c_thermo_press mode vector

#min_style cg
#minimize 1.0e-15 1.0e-15 100000 100000 #设置能量最小化

thermo		100
thermo_style custom step temp pe press f_avp[1] f_avp[2] f_avp[3] f_avp[4] f_avp[5] f_avp[6]
thermo_modify norm no

# Setup MD

timestep 0.0001
fix 4 all nve
fix 5 all langevin 300 300 0.008 123457

run 300
Step Temp PotEng Press f_avp[1] f_avp[2] f_avp[3] f_avp[4] f_avp[5] f_avp[6]
0    261.64803   -453.51965   -12986.566            0            0            0            0            0            0
Loop time of 54.5587 on 1 procs for 300 steps with 62 atoms

# Obtain new stress tensor

variable pxx1 equal f_avp[1]
variable pyy1 equal f_avp[2]
variable pzz1 equal f_avp[3]
variable pxy1 equal f_avp[4]
variable pxz1 equal f_avp[5]
variable pyz1 equal f_avp[6]

# Compute elastic constant from pressure tensor

variable C1neg equal 23.6329509287785
variable C2neg equal 6.78269432658849
variable C3neg equal -33.4339012525477
variable C4neg equal 29.5355106103029
variable C5neg equal -14.1860952015547
variable C6neg equal -6.57635635945884

# Reset box and simulation parameters

clear
box tilt large
read_restart restart.equil
Reading restart file ...
  restart file = 29 Sep 2021, LAMMPS = 29 Sep 2021
  restoring atom style atomic from restart
  triclinic box = (-0.028385922 -0.019029618 -0.023941541) to (11.143354 7.4703852 9.3986401) with tilt (-0.17508046 -0.15432250 -1.9346936)
  pair style nequip stores no restart info
  62 atoms
  read_restart CPU = 0.001 seconds
include potential.mod
# NOTE: This script can be modified for different pair styles
# See in.elastic for more info.

# we must undefine any fix ave/* fix before using reset_timestep
if "$(is_defined(fix,avp))" then "unfix avp"
reset_timestep 0

newton off

# Choose potential
# pair_style	sw
# pair_coeff * * Si.sw Si
pair_style	nequip
pair_coeff	* * tob9_l3-deployed.pth Ca H O Si

atom_modify sort 0 0.0
#kspace_style	ewald 1.0e-6# Setup neighbor style

neighbor 2.0 bin
neigh_modify once no every 1 delay 0 check yes

# Setup output

fix avp all ave/time  10 10 100 c_thermo_press mode vector

#min_style cg
#minimize 1.0e-15 1.0e-15 100000 100000 #设置能量最小化

thermo		100
thermo_style custom step temp pe press f_avp[1] f_avp[2] f_avp[3] f_avp[4] f_avp[5] f_avp[6]
thermo_modify norm no

# Setup MD

timestep 0.0001
fix 4 all nve
fix 5 all langevin 300 300 0.008 123457

# Positive deformation

variable delta equal 0.02*9.42258167658589
variable deltaxy equal 0.02*xy
variable deltaxz equal 0.02*xz
variable deltayz equal 0.02*yz
change_box all yz delta 0.188451633531718 remap units box
Changing box ...
  triclinic box = (-0.028385922 -0.019029618 -0.023941541) to (11.143354 7.4703852 9.3986401) with tilt (-0.17508046 -0.15432250 -1.7462419)

# Run MD

run 1000
  update every 1 steps, delay 0 steps, check yes
Step Temp PotEng Press f_avp[1] f_avp[2] f_avp[3] f_avp[4] f_avp[5] f_avp[6]
0    317.04817   -453.95447   -5590.9703            0            0            0            0            0            0
Averages over the last 6 of 11 rows, steps 500 to 1000:
Temp PotEng Press f_avp[1] f_avp[2] f_avp[3] f_avp[4] f_avp[5] f_avp[6]
290.44 -453.73 -2931.96 5605.53 -19043.4 6374.19 16539.1 -1687.11 -6077.07
Loop time of 169.166 on 1 procs for 1000 steps with 62 atoms

include potential.mod
# NOTE: This script can be modified for different pair styles
# See in.elastic for more info.

# we must undefine any fix ave/* fix before using reset_timestep
if "$(is_defined(fix,avp))" then "unfix avp"
unfix avp
reset_timestep 0

newton off

# Choose potential
# pair_style	sw
# pair_coeff * * Si.sw Si
pair_style	nequip
pair_coeff	* * tob9_l3-deployed.pth Ca H O Si

atom_modify sort 0 0.0
#kspace_style	ewald 1.0e-6# Setup neighbor style

neighbor 2.0 bin
neigh_modify once no every 1 delay 0 check yes

# Setup output

fix avp all ave/time  10 10 100 c_thermo_press mode vector

#min_style cg
#minimize 1.0e-15 1.0e-15 100000 100000 #设置能量最小化

thermo		100
thermo_style custom step temp pe press f_avp[1] f_avp[2] f_avp[3] f_avp[4] f_avp[5] f_avp[6]
thermo_modify norm no

# Setup MD

timestep 0.0001
fix 4 all nve
fix 5 all langevin 300 300 0.008 123457

run 300
Step Temp PotEng Press f_avp[1] f_avp[2] f_avp[3] f_avp[4] f_avp[5] f_avp[6]
0    261.65323   -453.58783   -13635.702            0            0            0            0            0            0
Loop time of 56.8637 on 1 procs for 300 steps with 62 atoms

# Obtain new stress tensor

variable pxx1 equal f_avp[1]
variable pyy1 equal f_avp[2]
variable pzz1 equal f_avp[3]
variable pxy1 equal f_avp[4]
variable pxz1 equal f_avp[5]
variable pyz1 equal f_avp[6]

# Compute elastic constant from pressure tensor

variable C1pos equal -19.9673187616
variable C2pos equal -5.07394066549301
variable C3pos equal 41.7291020174815
variable C4pos equal 57.9897404278786
variable C5pos equal 15.7664240515655
variable C6pos equal -3.72559816630049

# Combine positive and negative

variable C14 equal 0.5*(23.6329509287785+-19.9673187616)
variable C24 equal 0.5*(6.78269432658849+-5.07394066549301)
variable C34 equal 0.5*(-33.4339012525477+41.7291020174815)
variable C44 equal 0.5*(29.5355106103029+57.9897404278786)
variable C54 equal 0.5*(-14.1860952015547+15.7664240515655)
variable C64 equal 0.5*(-6.57635635945884+-3.72559816630049)

# Delete dir to make sure it is not reused

variable dir delete

# uxz Perturbation

variable dir equal 5
include displace.mod
# NOTE: This script should not need to be
# modified. See in.elastic for more info.
#
# Find which reference length to use

variable len0 equal 9.42258167658589

# Reset box and simulation parameters

clear
box tilt large
read_restart restart.equil
Reading restart file ...
  restart file = 29 Sep 2021, LAMMPS = 29 Sep 2021
  restoring atom style atomic from restart
  triclinic box = (-0.028385922 -0.019029618 -0.023941541) to (11.143354 7.4703852 9.3986401) with tilt (-0.17508046 -0.15432250 -1.9346936)
  pair style nequip stores no restart info
  62 atoms
  read_restart CPU = 0.002 seconds
include potential.mod
# NOTE: This script can be modified for different pair styles
# See in.elastic for more info.

# we must undefine any fix ave/* fix before using reset_timestep
if "$(is_defined(fix,avp))" then "unfix avp"
reset_timestep 0

newton off

# Choose potential
# pair_style	sw
# pair_coeff * * Si.sw Si
pair_style	nequip
pair_coeff	* * tob9_l3-deployed.pth Ca H O Si

atom_modify sort 0 0.0
#kspace_style	ewald 1.0e-6# Setup neighbor style

neighbor 2.0 bin
neigh_modify once no every 1 delay 0 check yes

# Setup output

fix avp all ave/time  10 10 100 c_thermo_press mode vector

#min_style cg
#minimize 1.0e-15 1.0e-15 100000 100000 #设置能量最小化

thermo		100
thermo_style custom step temp pe press f_avp[1] f_avp[2] f_avp[3] f_avp[4] f_avp[5] f_avp[6]
thermo_modify norm no

# Setup MD

timestep 0.0001
fix 4 all nve
fix 5 all langevin 300 300 0.008 123457

# Negative deformation

variable delta equal -0.02*9.42258167658589
variable deltaxy equal -0.02*xy
variable deltaxz equal -0.02*xz
variable deltayz equal -0.02*yz
change_box all xz delta -0.188451633531718 remap units box
Changing box ...
  triclinic box = (-0.028385922 -0.019029618 -0.023941541) to (11.143354 7.4703852 9.3986401) with tilt (-0.17508046 -0.34277413 -1.9346936)

# Run MD

run 1000
  update every 1 steps, delay 0 steps, check yes
Step Temp PotEng Press f_avp[1] f_avp[2] f_avp[3] f_avp[4] f_avp[5] f_avp[6]
0    317.04817     -453.884   -4645.2098            0            0            0            0            0            0
Averages over the last 6 of 11 rows, steps 500 to 1000:
Temp PotEng Press f_avp[1] f_avp[2] f_avp[3] f_avp[4] f_avp[5] f_avp[6]
290.686 -453.703 -3916.28 4368.48 -21187.7 6667.71 15427.4 4444.51 4022.23
Loop time of 173.511 on 1 procs for 1000 steps with 62 atoms

include potential.mod
# NOTE: This script can be modified for different pair styles
# See in.elastic for more info.

# we must undefine any fix ave/* fix before using reset_timestep
if "$(is_defined(fix,avp))" then "unfix avp"
unfix avp
reset_timestep 0

newton off

# Choose potential
# pair_style	sw
# pair_coeff * * Si.sw Si
pair_style	nequip
pair_coeff	* * tob9_l3-deployed.pth Ca H O Si

atom_modify sort 0 0.0
#kspace_style	ewald 1.0e-6# Setup neighbor style

neighbor 2.0 bin
neigh_modify once no every 1 delay 0 check yes

# Setup output

fix avp all ave/time  10 10 100 c_thermo_press mode vector

#min_style cg
#minimize 1.0e-15 1.0e-15 100000 100000 #设置能量最小化

thermo		100
thermo_style custom step temp pe press f_avp[1] f_avp[2] f_avp[3] f_avp[4] f_avp[5] f_avp[6]
thermo_modify norm no

# Setup MD

timestep 0.0001
fix 4 all nve
fix 5 all langevin 300 300 0.008 123457

run 300
Step Temp PotEng Press f_avp[1] f_avp[2] f_avp[3] f_avp[4] f_avp[5] f_avp[6]
0    262.48744   -453.55756   -14519.213            0            0            0            0            0            0
Loop time of 56.0473 on 1 procs for 300 steps with 62 atoms

# Obtain new stress tensor

variable pxx1 equal f_avp[1]
variable pyy1 equal f_avp[2]
variable pzz1 equal f_avp[3]
variable pxy1 equal f_avp[4]
variable pxz1 equal f_avp[5]
variable pyz1 equal f_avp[6]

# Compute elastic constant from pressure tensor

variable C1neg equal 14.3728245703947
variable C2neg equal -5.69649447287249
variable C3neg equal -39.192750620198
variable C4neg equal -13.640842234354
variable C5neg equal 11.6673547049279
variable C6neg equal 0.303161629842998

# Reset box and simulation parameters

clear
box tilt large
read_restart restart.equil
Reading restart file ...
  restart file = 29 Sep 2021, LAMMPS = 29 Sep 2021
  restoring atom style atomic from restart
  triclinic box = (-0.028385922 -0.019029618 -0.023941541) to (11.143354 7.4703852 9.3986401) with tilt (-0.17508046 -0.15432250 -1.9346936)
  pair style nequip stores no restart info
  62 atoms
  read_restart CPU = 0.001 seconds
include potential.mod
# NOTE: This script can be modified for different pair styles
# See in.elastic for more info.

# we must undefine any fix ave/* fix before using reset_timestep
if "$(is_defined(fix,avp))" then "unfix avp"
reset_timestep 0

newton off

# Choose potential
# pair_style	sw
# pair_coeff * * Si.sw Si
pair_style	nequip
pair_coeff	* * tob9_l3-deployed.pth Ca H O Si

atom_modify sort 0 0.0
#kspace_style	ewald 1.0e-6# Setup neighbor style

neighbor 2.0 bin
neigh_modify once no every 1 delay 0 check yes

# Setup output

fix avp all ave/time  10 10 100 c_thermo_press mode vector

#min_style cg
#minimize 1.0e-15 1.0e-15 100000 100000 #设置能量最小化

thermo		100
thermo_style custom step temp pe press f_avp[1] f_avp[2] f_avp[3] f_avp[4] f_avp[5] f_avp[6]
thermo_modify norm no

# Setup MD

timestep 0.0001
fix 4 all nve
fix 5 all langevin 300 300 0.008 123457

# Positive deformation

variable delta equal 0.02*9.42258167658589
variable deltaxy equal 0.02*xy
variable deltaxz equal 0.02*xz
variable deltayz equal 0.02*yz
change_box all xz delta 0.188451633531718 remap units box
Changing box ...
  triclinic box = (-0.028385922 -0.019029618 -0.023941541) to (11.143354 7.4703852 9.3986401) with tilt (-0.17508046 0.034129135 -1.9346936)

# Run MD

run 1000
  update every 1 steps, delay 0 steps, check yes
Step Temp PotEng Press f_avp[1] f_avp[2] f_avp[3] f_avp[4] f_avp[5] f_avp[6]
0    317.04817   -453.94327   -6056.7465            0            0            0            0            0            0
Averages over the last 6 of 11 rows, steps 500 to 1000:
Temp PotEng Press f_avp[1] f_avp[2] f_avp[3] f_avp[4] f_avp[5] f_avp[6]
291.289 -453.725 -1456.98 6917.77 -16213.9 6569.33 15548.9 -7447.47 3652.46
Loop time of 173.755 on 1 procs for 1000 steps with 62 atoms

include potential.mod
# NOTE: This script can be modified for different pair styles
# See in.elastic for more info.

# we must undefine any fix ave/* fix before using reset_timestep
if "$(is_defined(fix,avp))" then "unfix avp"
unfix avp
reset_timestep 0

newton off

# Choose potential
# pair_style	sw
# pair_coeff * * Si.sw Si
pair_style	nequip
pair_coeff	* * tob9_l3-deployed.pth Ca H O Si

atom_modify sort 0 0.0
#kspace_style	ewald 1.0e-6# Setup neighbor style

neighbor 2.0 bin
neigh_modify once no every 1 delay 0 check yes

# Setup output

fix avp all ave/time  10 10 100 c_thermo_press mode vector

#min_style cg
#minimize 1.0e-15 1.0e-15 100000 100000 #设置能量最小化

thermo		100
thermo_style custom step temp pe press f_avp[1] f_avp[2] f_avp[3] f_avp[4] f_avp[5] f_avp[6]
thermo_modify norm no

# Setup MD

timestep 0.0001
fix 4 all nve
fix 5 all langevin 300 300 0.008 123457

run 300
Step Temp PotEng Press f_avp[1] f_avp[2] f_avp[3] f_avp[4] f_avp[5] f_avp[6]
0    260.67821   -453.58258   -12098.266            0            0            0            0            0            0
Loop time of 54.3331 on 1 procs for 300 steps with 62 atoms

# Obtain new stress tensor

variable pxx1 equal f_avp[1]
variable pyy1 equal f_avp[2]
variable pzz1 equal f_avp[3]
variable pxy1 equal f_avp[4]
variable pxz1 equal f_avp[5]
variable pyz1 equal f_avp[6]

# Compute elastic constant from pressure tensor

variable C1pos equal -28.7719367982383
variable C2pos equal -19.4370149592835
variable C3pos equal 37.6187981456317
variable C4pos equal 14.3319666140766
variable C5pos equal 41.6337594785047
variable C6pos equal 3.0618970007725

# Combine positive and negative

variable C15 equal 0.5*(14.3728245703947+-28.7719367982383)
variable C25 equal 0.5*(-5.69649447287249+-19.4370149592835)
variable C35 equal 0.5*(-39.192750620198+37.6187981456317)
variable C45 equal 0.5*(-13.640842234354+14.3319666140766)
variable C55 equal 0.5*(11.6673547049279+41.6337594785047)
variable C65 equal 0.5*(0.303161629842998+3.0618970007725)

# Delete dir to make sure it is not reused

variable dir delete

# uxy Perturbation

variable dir equal 6
include displace.mod
# NOTE: This script should not need to be
# modified. See in.elastic for more info.
#
# Find which reference length to use

variable len0 equal 7.48941479754596

# Reset box and simulation parameters

clear
box tilt large
read_restart restart.equil
Reading restart file ...
  restart file = 29 Sep 2021, LAMMPS = 29 Sep 2021
  restoring atom style atomic from restart
  triclinic box = (-0.028385922 -0.019029618 -0.023941541) to (11.143354 7.4703852 9.3986401) with tilt (-0.17508046 -0.15432250 -1.9346936)
  pair style nequip stores no restart info
  62 atoms
  read_restart CPU = 0.002 seconds
include potential.mod
# NOTE: This script can be modified for different pair styles
# See in.elastic for more info.

# we must undefine any fix ave/* fix before using reset_timestep
if "$(is_defined(fix,avp))" then "unfix avp"
reset_timestep 0

newton off

# Choose potential
# pair_style	sw
# pair_coeff * * Si.sw Si
pair_style	nequip
pair_coeff	* * tob9_l3-deployed.pth Ca H O Si

atom_modify sort 0 0.0
#kspace_style	ewald 1.0e-6# Setup neighbor style

neighbor 2.0 bin
neigh_modify once no every 1 delay 0 check yes

# Setup output

fix avp all ave/time  10 10 100 c_thermo_press mode vector

#min_style cg
#minimize 1.0e-15 1.0e-15 100000 100000 #设置能量最小化

thermo		100
thermo_style custom step temp pe press f_avp[1] f_avp[2] f_avp[3] f_avp[4] f_avp[5] f_avp[6]
thermo_modify norm no

# Setup MD

timestep 0.0001
fix 4 all nve
fix 5 all langevin 300 300 0.008 123457

# Negative deformation

variable delta equal -0.02*7.48941479754596
variable deltaxy equal -0.02*xy
variable deltaxz equal -0.02*xz
variable deltayz equal -0.02*yz
change_box all xy delta -0.149788295950919 remap units box
Changing box ...
  triclinic box = (-0.028385922 -0.019029618 -0.023941541) to (11.143354 7.4703852 9.3986401) with tilt (-0.32486876 -0.15432250 -1.9346936)

# Run MD

run 1000
  update every 1 steps, delay 0 steps, check yes
Step Temp PotEng Press f_avp[1] f_avp[2] f_avp[3] f_avp[4] f_avp[5] f_avp[6]
0    317.04817   -453.80426   -4729.6424            0            0            0            0            0            0
Averages over the last 6 of 11 rows, steps 500 to 1000:
Temp PotEng Press f_avp[1] f_avp[2] f_avp[3] f_avp[4] f_avp[5] f_avp[6]
291.093 -453.562 -2347.79 6116.36 -18793.5 7148.76 25888.4 -404.714 2719.06
Loop time of 175.561 on 1 procs for 1000 steps with 62 atoms

include potential.mod
# NOTE: This script can be modified for different pair styles
# See in.elastic for more info.

# we must undefine any fix ave/* fix before using reset_timestep
if "$(is_defined(fix,avp))" then "unfix avp"
unfix avp
reset_timestep 0

newton off

# Choose potential
# pair_style	sw
# pair_coeff * * Si.sw Si
pair_style	nequip
pair_coeff	* * tob9_l3-deployed.pth Ca H O Si

atom_modify sort 0 0.0
#kspace_style	ewald 1.0e-6# Setup neighbor style

neighbor 2.0 bin
neigh_modify once no every 1 delay 0 check yes

# Setup output

fix avp all ave/time  10 10 100 c_thermo_press mode vector

#min_style cg
#minimize 1.0e-15 1.0e-15 100000 100000 #设置能量最小化

thermo		100
thermo_style custom step temp pe press f_avp[1] f_avp[2] f_avp[3] f_avp[4] f_avp[5] f_avp[6]
thermo_modify norm no

# Setup MD

timestep 0.0001
fix 4 all nve
fix 5 all langevin 300 300 0.008 123457

run 300
Step Temp PotEng Press f_avp[1] f_avp[2] f_avp[3] f_avp[4] f_avp[5] f_avp[6]
0    262.75007   -453.43564   -12902.869            0            0            0            0            0            0
Loop time of 56.0018 on 1 procs for 300 steps with 62 atoms

# Obtain new stress tensor

variable pxx1 equal f_avp[1]
variable pyy1 equal f_avp[2]
variable pzz1 equal f_avp[3]
variable pxy1 equal f_avp[4]
variable pxz1 equal f_avp[5]
variable pyz1 equal f_avp[6]

# Compute elastic constant from pressure tensor

variable C1neg equal 24.3246870708993
variable C2neg equal 5.64618456690551
variable C3neg equal -36.0209090413826
variable C4neg equal -18.1651364245982
variable C5neg equal -7.98246262635247
variable C6neg equal 50.4310228263576

# Reset box and simulation parameters

clear
box tilt large
read_restart restart.equil
Reading restart file ...
  restart file = 29 Sep 2021, LAMMPS = 29 Sep 2021
  restoring atom style atomic from restart
  triclinic box = (-0.028385922 -0.019029618 -0.023941541) to (11.143354 7.4703852 9.3986401) with tilt (-0.17508046 -0.15432250 -1.9346936)
  pair style nequip stores no restart info
  62 atoms
  read_restart CPU = 0.002 seconds
include potential.mod
# NOTE: This script can be modified for different pair styles
# See in.elastic for more info.

# we must undefine any fix ave/* fix before using reset_timestep
if "$(is_defined(fix,avp))" then "unfix avp"
reset_timestep 0

newton off

# Choose potential
# pair_style	sw
# pair_coeff * * Si.sw Si
pair_style	nequip
pair_coeff	* * tob9_l3-deployed.pth Ca H O Si

atom_modify sort 0 0.0
#kspace_style	ewald 1.0e-6# Setup neighbor style

neighbor 2.0 bin
neigh_modify once no every 1 delay 0 check yes

# Setup output

fix avp all ave/time  10 10 100 c_thermo_press mode vector

#min_style cg
#minimize 1.0e-15 1.0e-15 100000 100000 #设置能量最小化

thermo		100
thermo_style custom step temp pe press f_avp[1] f_avp[2] f_avp[3] f_avp[4] f_avp[5] f_avp[6]
thermo_modify norm no

# Setup MD

timestep 0.0001
fix 4 all nve
fix 5 all langevin 300 300 0.008 123457

# Positive deformation

variable delta equal 0.02*7.48941479754596
variable deltaxy equal 0.02*xy
variable deltaxz equal 0.02*xz
variable deltayz equal 0.02*yz
change_box all xy delta 0.149788295950919 remap units box
Changing box ...
  triclinic box = (-0.028385922 -0.019029618 -0.023941541) to (11.143354 7.4703852 9.3986401) with tilt (-0.025292169 -0.15432250 -1.9346936)

# Run MD

run 1000
  update every 1 steps, delay 0 steps, check yes
Step Temp PotEng Press f_avp[1] f_avp[2] f_avp[3] f_avp[4] f_avp[5] f_avp[6]
0    317.04817   -454.03323   -5998.3132            0            0            0            0            0            0
Averages over the last 6 of 11 rows, steps 500 to 1000:
Temp PotEng Press f_avp[1] f_avp[2] f_avp[3] f_avp[4] f_avp[5] f_avp[6]
290.893 -453.819 -2759.94 5552.44 -18209.3 6121.02 5127.2 -2545.11 5020
Loop time of 170.689 on 1 procs for 1000 steps with 62 atoms

include potential.mod
# NOTE: This script can be modified for different pair styles
# See in.elastic for more info.

# we must undefine any fix ave/* fix before using reset_timestep
if "$(is_defined(fix,avp))" then "unfix avp"
unfix avp
reset_timestep 0

newton off

# Choose potential
# pair_style	sw
# pair_coeff * * Si.sw Si
pair_style	nequip
pair_coeff	* * tob9_l3-deployed.pth Ca H O Si

atom_modify sort 0 0.0
#kspace_style	ewald 1.0e-6# Setup neighbor style

neighbor 2.0 bin
neigh_modify once no every 1 delay 0 check yes

# Setup output

fix avp all ave/time  10 10 100 c_thermo_press mode vector

#min_style cg
#minimize 1.0e-15 1.0e-15 100000 100000 #设置能量最小化

thermo		100
thermo_style custom step temp pe press f_avp[1] f_avp[2] f_avp[3] f_avp[4] f_avp[5] f_avp[6]
thermo_modify norm no

# Setup MD

timestep 0.0001
fix 4 all nve
fix 5 all langevin 300 300 0.008 123457

run 300
Step Temp PotEng Press f_avp[1] f_avp[2] f_avp[3] f_avp[4] f_avp[5] f_avp[6]
0    260.56753   -453.65607   -13461.375            0            0            0            0            0            0
Loop time of 53.68 on 1 procs for 300 steps with 62 atoms

# Obtain new stress tensor

variable pxx1 equal f_avp[1]
variable pyy1 equal f_avp[2]
variable pzz1 equal f_avp[3]
variable pxy1 equal f_avp[4]
variable pxz1 equal f_avp[5]
variable pyz1 equal f_avp[6]

# Compute elastic constant from pressure tensor

variable C1pos equal -19.9803592570993
variable C2pos equal -10.352894995506
variable C3pos equal 40.7537505857938
variable C4pos equal 9.36474986332911
variable C5pos equal 21.843853601643
variable C6pos equal 53.0829989692665

# Combine positive and negative

variable C16 equal 0.5*(24.3246870708993+-19.9803592570993)
variable C26 equal 0.5*(5.64618456690551+-10.352894995506)
variable C36 equal 0.5*(-36.0209090413826+40.7537505857938)
variable C46 equal 0.5*(-18.1651364245982+9.36474986332911)
variable C56 equal 0.5*(-7.98246262635247+21.843853601643)
variable C66 equal 0.5*(50.4310228263576+53.0829989692665)

# Delete dir to make sure it is not reused

variable dir delete

# Output final values

variable C11all equal 154.678256867958
variable C22all equal 167.003349564102
variable C33all equal 101.397848651174

variable C12all equal 0.5*(52.3392727185947+48.8073222840282)
variable C13all equal 0.5*(35.9407920978296+34.7687910289739)
variable C23all equal 0.5*(42.387240531625+46.3699403226377)

variable C44all equal 43.7626255190907
variable C55all equal 26.6505570917163
variable C66all equal 51.7570108978121

variable C14all equal 0.5*(1.83281608358925+2.5632646321021)
variable C15all equal 0.5*(-7.1995561139218+-6.81914206725199)
variable C16all equal 0.5*(2.1721639069+5.53562926849655)

variable C24all equal 0.5*(0.85437683054774+2.83915353053825)
variable C25all equal 0.5*(-12.566754716078+-12.6323866514145)
variable C26all equal 0.5*(-2.35335521430025+-0.211351531347255)

variable C34all equal 0.5*(4.1476003824669+1.99534306255375)
variable C35all equal 0.5*(-0.786976237283149+1.28083081351545)
variable C36all equal 0.5*(2.3664207722056+4.34739626507137)

variable C45all equal 0.5*(0.3455621898613+0.7901644250054)
variable C46all equal 0.5*(-4.40019328063454+-5.15097726287966)
variable C56all equal 0.5*(6.93069548764527+1.68252931530775)

print "========================================="
=========================================
print "Components of the Elastic Constant Tensor"
Components of the Elastic Constant Tensor
print "========================================="
=========================================

Elastic Constant C11all = 154.678256867958 GPa
Elastic Constant C22all = 167.003349564102 GPa
Elastic Constant C33all = 101.397848651174 GPa

Elastic Constant C12all = 50.5732975013115 GPa
Elastic Constant C13all = 35.3547915634017 GPa
Elastic Constant C23all = 44.3785904271313 GPa

Elastic Constant C44all = 43.7626255190907 GPa
Elastic Constant C55all = 26.6505570917163 GPa
Elastic Constant C66all = 51.7570108978121 GPa

Elastic Constant C14all = 2.19804035784568 GPa
Elastic Constant C15all = -7.00934909058689 GPa
Elastic Constant C16all = 3.85389658769827 GPa

Elastic Constant C24all = 1.84676518054299 GPa
Elastic Constant C25all = -12.5995706837463 GPa
Elastic Constant C26all = -1.28235337282375 GPa

Elastic Constant C34all = 3.07147172251032 GPa
Elastic Constant C35all = 0.246927288116151 GPa
Elastic Constant C36all = 3.35690851863848 GPa

Elastic Constant C45all = 0.56786330743335 GPa
Elastic Constant C46all = -4.7755852717571 GPa
Elastic Constant C56all = 4.30661240147651 GPa

print " "

print "Cij tensor matrix"
Cij tensor matrix
print " "

write_restart restart2
System init for write_restart ...
