LAMMPS (2 Aug 2023 - Update 1)
Loaded 1 plugins from /home/zkm/anaconda3/envs/deepmd/lib/deepmd_lmp

units	metal
dimension 3
atom_style atomic
boundary        p p p

box tilt large

The 'box' command has been removed and will be ignored

read_data tob9_ref_deepmd.data
Reading data file ...
  triclinic box = (0 0 0) to (11.114968 7.4513556 9.3746986) with tilt (-0.17419075 -0.15353827 -1.924862)
  reading atoms ...
  62 atoms

#special_bonds lj/coul 0.0 0.0 1.0
#atom_modify sort 0 0.0

pair_style	deepmd tob9_deepmd_compress.pb
Summary of lammps deepmd module ...
  >>> Info of deepmd-kit:
  installed to:       /home/zkm/anaconda3/envs/deepmd
  source:             v2.2.7
  source branch:       HEAD
  source commit:      839f4fe7
  source commit at:   2023-10-27 21:10:24 +0800
  surpport model ver.:1.1
  build variant:      cuda
  build with tf inc:  /home/zkm/anaconda3/envs/deepmd/include;/home/zkm/anaconda3/envs/deepmd/include
  build with tf lib:  /home/zkm/anaconda3/envs/deepmd/lib/libtensorflow_cc.so
  set tf intra_op_parallelism_threads: 0
  set tf inter_op_parallelism_threads: 0
  >>> Info of lammps module:
  use deepmd-kit at:  /home/zkm/anaconda3/envs/deepmdpair_coeff	* * Ca H O Si
mass            1 40.079800
mass            4 28.08500
mass            3 15.9994
mass            2 1.00794

timestep 0.001

velocity all create 300 4928459 rot yes dist gaussian #温度初始化
min_style cg
minimize 1.0e-15 1.0e-15 100000 100000

CITE-CITE-CITE-CITE-CITE-CITE-CITE-CITE-CITE-CITE-CITE-CITE-CITE

Your simulation uses code contributions which should be cited:

- USER-DEEPMD package:

@article{Wang_ComputPhysCommun_2018_v228_p178,
  author = {Wang, Han and Zhang, Linfeng and Han, Jiequn and E, Weinan},
  doi = {10.1016/j.cpc.2018.03.016},
  url = {https://doi.org/10.1016/j.cpc.2018.03.016},
  year = 2018,
  month = {jul},
  publisher = {Elsevier {BV}},
  volume = 228,
  journal = {Comput. Phys. Commun.},
  title = {{DeePMD-kit: A deep learning package for many-body potential energy representation and molecular dynamics}},
  pages = {178--184}
}
@misc{Zeng_JChemPhys_2023_v159_p054801,
  title  = {{DeePMD-kit v2: A software package for deep potential models}},
  author =   {Jinzhe Zeng and Duo Zhang and Denghui Lu and Pinghui Mo and Zeyu Li
         and Yixiao Chen and Mari{\'a}n Rynik and Li'ang Huang and Ziyao Li and
         Shaochen Shi and Yingze Wang and Haotian Ye and Ping Tuo and Jiabin
         Yang and Ye Ding and Yifan Li and Davide Tisi and Qiyu Zeng and Han
         Bao and Yu Xia and Jiameng Huang and Koki Muraoka and Yibo Wang and
         Junhan Chang and Fengbo Yuan and Sigbj{\o}rn L{\o}land Bore and Chun
         Cai and Yinnian Lin and Bo Wang and Jiayan Xu and Jia-Xin Zhu and
         Chenxing Luo and Yuzhi Zhang and Rhys E A Goodall and Wenshuo Liang
         and Anurag Kumar Singh and Sikai Yao and Jingchao Zhang and Renata
         Wentzcovitch and Jiequn Han and Jie Liu and Weile Jia and Darrin M
         York and Weinan E and Roberto Car and Linfeng Zhang and Han Wang},
  journal =  {J. Chem. Phys.},
  volume =   159,
  issue =    5,
  year =    2023,
  pages  =   054801,
  doi =      {10.1063/5.0155600},
}

CITE-CITE-CITE-CITE-CITE-CITE-CITE-CITE-CITE-CITE-CITE-CITE-CITE

Generated 0 of 6 mixed pair_coeff terms from geometric mixing rule
Step          Temp          E_pair         E_mol          TotEng         Press
0   300           -451.17407      0             -448.8086       20224.121
Loop time of 2.4919 on 1 procs for 204 steps with 62 atoms

Minimization stats:
  Stopping criterion = energy tolerance
  Energy initial, next-to-last, final =
  Force two-norm initial, final = 21.373936 4.3506638e-06
  Force max component initial, final = 7.3208246 9.0154895e-07
  Final line search alpha, max atom move = 1 9.0154895e-07
  Iterations, force evaluations = 204 407

thermo 100
#thermo_style  custom step temp etotal cella cellb cellc cellalpha cellbeta cellgamma pxx pyy pzz
thermo_style  custom step temp press etotal lx ly lz xy yz xz pxx pyy pzz

fix 1 all npt temp 300.0 300.0 0.1 aniso 1.01325 1.01325 1.0

run 5000
Generated 0 of 6 mixed pair_coeff terms from geometric mixing rule
Step          Temp          Press          TotEng           Lx             Ly             Lz             Xy             Yz             Xz            Pxx            Pyy            Pzz
204   300            1591.9575     -454.27354      11.114968      7.4513556      9.3746986     -0.17419075    -1.924862      -0.15353827     3450.4578      1090.2699      235.14486
Averages over the last 26 of 52 rows, steps 2800 to 5204:
Temp Press TotEng Lx Ly Lz Xy Yz Xz Pxx Pyy Pzz
304.92 -3520.23 -453.003 11.2047 7.36271 9.42402 -0.172118 -1.93499 -0.154346 -7964.54 -2276.75 -319.398
Loop time of 31.3471 on 1 procs for 5000 steps with 62 atoms

write_dump all custom output-tob9_ref.dump id type x y z fx fy fz

compute         rdf_nequip all rdf 400 4 3 4 3 4 3
fix             2 all ave/time 10 10 100 c_rdf_nequip[*] file tob9_Ref.rdf mode vector

run 5000
Generated 0 of 6 mixed pair_coeff terms from geometric mixing rule
Step          Temp          Press          TotEng           Lx             Ly             Lz             Xy             Yz             Xz            Pxx            Pyy            Pzz
5204   309.27735     -10776.091     -452.76365      11.284609      7.4048645      9.4064793     -0.17310393    -1.9313873     -0.15405877    -12270.482     -11917.867     -8139.9235
Averages over the last 26 of 52 rows, steps 7800 to 10204:
Temp Press TotEng Lx Ly Lz Xy Yz Xz Pxx Pyy Pzz
292.275 -2414.08 -453.181 11.1895 7.36772 9.42188 -0.172236 -1.93455 -0.154311 -3209.14 -434.099 -3598.99
Loop time of 31.8067 on 1 procs for 5000 steps with 62 atoms
