LAMMPS (29 Sep 2021 - Update 2)

units	metal
dimension 3
atom_style atomic
boundary        p p p
newton off

box tilt large
read_data tob11_ref_deepmd.data
Reading data file ...
  triclinic box = (0.0000000 0.0000000 0.0000000) to (6.8037000 6.1848150 22.405446) with tilt (2.6646871 0.29402869 -0.26981789)
  reading atoms ...
  88 atoms

#special_bonds lj/coul 0.0 0.0 1.0
#atom_modify sort 0 0.0

pair_style	nequip
pair_coeff	* * tob11_l3-deployed.pth Ca H O Si
mass            1 40.079800
mass            4 28.08500
mass            3 15.9994
mass            2 1.00794

timestep 0.001

velocity all create 300 4928459 rot yes dist gaussian #温度初始化
min_style cg
minimize 1.0e-15 1.0e-15 100000 100000
  update every 1 steps, delay 0 steps, check yes
Step Temp E_pair E_mol TotEng Press
0          300   -571.49316            0   -568.11947    20949.278
Loop time of 114.276 on 1 procs for 208 steps with 88 atoms

Minimization stats:
  Stopping criterion = energy tolerance
  Energy initial, next-to-last, final =
  Force two-norm initial, final = 16.218636 0.071440758
  Force max component initial, final = 3.7823699 0.024989406
  Final line search alpha, max atom move = 1.0000000 0.024989406
  Iterations, force evaluations = 208 416

thermo 100
#thermo_style  custom step temp etotal cella cellb cellc cellalpha cellbeta cellgamma pxx pyy pzz
thermo_style  custom step temp press etotal lx ly lz xy yz xz pxx pyy pzz

fix 1 all nvt temp 300.0 300.0 0.1

run 5000
Step Temp Press TotEng Lx Ly Lz Xy Yz Xz Pxx Pyy Pzz
208          300    11085.036   -574.61825       6.8037     6.184815    22.405446    2.6646871  -0.26981789   0.29402869    4859.0022    15674.514    12721.592
Averages over the last 26 of 52 rows, steps 2800 to 5208:
Temp Press TotEng Lx Ly Lz Xy Yz Xz Pxx Pyy Pzz
286.182 13046.5 -571.522 6.8037 6.18482 22.4054 2.66469 -0.269818 0.294029 9733.84 12824.8 16580.8
Loop time of 1305.53 on 1 procs for 5000 steps with 88 atoms

write_dump all custom output-tob11_ref.dump id type x y z fx fy fz

compute         rdf_nequip all rdf 400 4 3 4 3 4 3
fix             2 all ave/time 10 10 100 c_rdf_nequip[*] file tob11_Ref.rdf mode vector

run 5000
  update every 1 steps, delay 10 steps, check yes
Step Temp Press TotEng Lx Ly Lz Xy Yz Xz Pxx Pyy Pzz
5208    255.22073    4720.7682   -571.98596       6.8037     6.184815    22.405446    2.6646871  -0.26981789   0.29402869   -5129.3629     13160.76    6130.9075
Averages over the last 26 of 52 rows, steps 7800 to 10208:
Temp Press TotEng Lx Ly Lz Xy Yz Xz Pxx Pyy Pzz
310.879 14059.6 -571.122 6.8037 6.18482 22.4054 2.66469 -0.269818 0.294029 10221.8 14783.4 17173.7
Loop time of 1306.69 on 1 procs for 5000 steps with 88 atoms
