LAMMPS (29 Sep 2021 - Update 2)

units	metal
dimension 3
atom_style atomic
boundary        p p p
newton off

box tilt large
read_data tob14_ref_deepmd.data
Reading data file ...
  triclinic box = (0.0000000 0.0000000 0.0000000) to (6.9541015 6.3530143 28.422936) with tilt (2.6303553 0.54033995 1.3928068)
  reading atoms ...
  104 atoms

#special_bonds lj/coul 0.0 0.0 1.0
#atom_modify sort 0 0.0

pair_style	nequip
pair_coeff	* * tob14_l3-deployed.pth Ca Si O H
mass            1 40.079800
mass            2 28.08500
mass            3 15.9994
mass            4 1.00794

timestep 0.001

velocity all create 300 4928459 rot yes dist gaussian #温度初始化
min_style cg
minimize 1.0e-15 1.0e-15 100000 100000
  update every 1 steps, delay 0 steps, check yes
Step Temp E_pair E_mol TotEng Press
0          300   -656.06885            0   -652.07471   -42317.268
Loop time of 118.812 on 1 procs for 215 steps with 104 atoms

Minimization stats:
  Stopping criterion = energy tolerance
  Energy initial, next-to-last, final =
  Force two-norm initial, final = 18.141590 0.13839518
  Force max component initial, final = 3.8508687 0.028603457
  Final line search alpha, max atom move = 0.76191258 0.021793334
  Iterations, force evaluations = 215 430

thermo 100
#thermo_style  custom step temp etotal cella cellb cellc cellalpha cellbeta cellgamma pxx pyy pzz
thermo_style  custom step temp press etotal lx ly lz xy yz xz pxx pyy pzz

fix 1 all npt temp 300.0 300.0 0.1 aniso 1.01325 1.01325 1.0

run 5000
Step Temp Press TotEng Lx Ly Lz Xy Yz Xz Pxx Pyy Pzz
215          300   -31928.288   -659.73889    6.9541015    6.3530143    28.422936    2.6303553    1.3928068   0.54033995   -33548.821   -41659.482   -20576.562
Averages over the last 26 of 52 rows, steps 2800 to 5215:
Temp Press TotEng Lx Ly Lz Xy Yz Xz Pxx Pyy Pzz
297.4 359.811 -656.947 6.78663 6.16005 27.9533 2.55046 1.36979 0.531412 -512.275 220.129 1371.58
Loop time of 1405.23 on 1 procs for 5000 steps with 104 atoms

write_dump all custom output-tob14_ref.dump id type x y z fx fy fz

compute         rdf_nequip all rdf 400 2 3 2 3 2 3
fix             2 all ave/time 10 10 100 c_rdf_nequip[*] file tob14_Ref.rdf mode vector

run 5000
  update every 1 steps, delay 10 steps, check yes
Step Temp Press TotEng Lx Ly Lz Xy Yz Xz Pxx Pyy Pzz
5215    335.11604   -1998.4912   -656.38056    6.8547234    6.1318554     28.09709    2.5387883    1.3768394   0.53414539   -8362.8127   -6277.7441    8645.0831
Averages over the last 26 of 52 rows, steps 7800 to 10215:
Temp Press TotEng Lx Ly Lz Xy Yz Xz Pxx Pyy Pzz
302.739 2901.41 -656.62 6.78816 6.14826 28.0496 2.54558 1.37451 0.533242 3650.1 542.973 4511.16
Loop time of 1398.6 on 1 procs for 5000 steps with 104 atoms
