LAMMPS (29 Sep 2021 - Update 2)

units	metal
dimension 3
atom_style atomic
boundary        p p p
newton off

box tilt large
read_data tob14_ref_deepmd.data
Reading data file ...
  triclinic box = (0.0000000 0.0000000 0.0000000) to (6.9541015 6.3530143 28.422936) with tilt (2.6303553 0.54033995 1.3928068)
  reading atoms ...
  104 atoms

#special_bonds lj/coul 0.0 0.0 1.0
#atom_modify sort 0 0.0

pair_style	nequip
pair_coeff	* * tob14_l3-deployed.pth Ca Si O H
mass            1 40.079800
mass            2 28.08500
mass            3 15.9994
mass            4 1.00794

timestep 0.001

velocity all create 300 4928459 rot yes dist gaussian #温度初始化
min_style cg
minimize 1.0e-15 1.0e-15 100000 100000
  update every 1 steps, delay 0 steps, check yes
Step Temp E_pair E_mol TotEng Press
0          300   -656.06885            0   -652.07471   -42317.272
Loop time of 127.207 on 1 procs for 229 steps with 104 atoms

Minimization stats:
  Stopping criterion = energy tolerance
  Energy initial, next-to-last, final =
  Force two-norm initial, final = 18.141591 0.12938251
  Force max component initial, final = 3.8508694 0.026566766
  Final line search alpha, max atom move = 0.38414257 0.010205426
  Iterations, force evaluations = 229 460

thermo 100
#thermo_style  custom step temp etotal cella cellb cellc cellalpha cellbeta cellgamma pxx pyy pzz
thermo_style  custom step temp press etotal lx ly lz xy yz xz pxx pyy pzz

fix 1 all nvt temp 300.0 300.0 0.1
#fix 1 all npt temp 300.0 300.0 0.1 aniso 1.01325 1.01325 1.0

run 5000
Step Temp Press TotEng Lx Ly Lz Xy Yz Xz Pxx Pyy Pzz
229          300   -32315.252   -659.74188    6.9541015    6.3530143    28.422936    2.6303553    1.3928068   0.54033995   -34095.417   -41613.984   -21236.354
Averages over the last 26 of 52 rows, steps 2800 to 5229:
Temp Press TotEng Lx Ly Lz Xy Yz Xz Pxx Pyy Pzz
294.024 -20779.1 -656.205 6.9541 6.35301 28.4229 2.63036 1.39281 0.54034 -24215.3 -30469.5 -7652.45
Loop time of 1312.5 on 1 procs for 5000 steps with 104 atoms

write_dump all custom output-tob14_ref.dump id type x y z fx fy fz

compute         rdf_nequip all rdf 400 1 3 1 3 1 3
fix             2 all ave/time 10 10 100 c_rdf_nequip[*] file tob14_Ref.rdf mode vector

run 5000
  update every 1 steps, delay 10 steps, check yes
Step Temp Press TotEng Lx Ly Lz Xy Yz Xz Pxx Pyy Pzz
5229    353.23119   -15825.507    -655.5994    6.9541015    6.3530143    28.422936    2.6303553    1.3928068   0.54033995   -13058.976   -23437.454   -10980.091
Averages over the last 26 of 52 rows, steps 7800 to 10229:
Temp Press TotEng Lx Ly Lz Xy Yz Xz Pxx Pyy Pzz
302.994 -19936.5 -656.024 6.9541 6.35301 28.4229 2.63036 1.39281 0.54034 -26042 -30746.2 -3021.45
Loop time of 1318.87 on 1 procs for 5000 steps with 104 atoms
