LAMMPS (29 Sep 2021 - Update 2)

units	metal
dimension 3
atom_style atomic
boundary        p p p
newton off

box tilt large
read_data tob11_ref_deepmd.data
Reading data file ...
  triclinic box = (0.0000000 0.0000000 0.0000000) to (6.8037000 6.1848150 22.405446) with tilt (2.6646871 0.29402869 -0.26981789)
  reading atoms ...
  88 atoms

#special_bonds lj/coul 0.0 0.0 1.0
#atom_modify sort 0 0.0

pair_style	nequip
pair_coeff	* * tob11_l3-deployed.pth Ca H O Si
mass            1 40.079800
mass            4 28.08500
mass            3 15.9994
mass            2 1.00794

timestep 0.001

velocity all create 300 4928459 rot yes dist gaussian #温度初始化
min_style cg
minimize 1.0e-15 1.0e-15 100000 100000
  update every 1 steps, delay 0 steps, check yes
Step Temp E_pair E_mol TotEng Press
0          300   -571.49316            0   -568.11947    20949.295
Loop time of 58.1957 on 1 procs for 119 steps with 88 atoms

Minimization stats:
  Stopping criterion = energy tolerance
  Energy initial, next-to-last, final =
  Force two-norm initial, final = 16.218635 0.10249432
  Force max component initial, final = 3.7823689 0.023769673
  Final line search alpha, max atom move = 0.48129722 0.011440278
  Iterations, force evaluations = 119 238

thermo 100
#thermo_style  custom step temp etotal cella cellb cellc cellalpha cellbeta cellgamma pxx pyy pzz
thermo_style  custom step temp press etotal lx ly lz xy yz xz pxx pyy pzz

fix 1 all npt temp 300.0 300.0 0.1 iso 1.01325 1.01325 1.0

run 5000
Step Temp Press TotEng Lx Ly Lz Xy Yz Xz Pxx Pyy Pzz
119          300    11389.423   -574.50345       6.8037     6.184815    22.405446    2.6646871  -0.26981789   0.29402869    7420.6836    14015.651    12731.933
Averages over the last 26 of 52 rows, steps 2700 to 5119:
Temp Press TotEng Lx Ly Lz Xy Yz Xz Pxx Pyy Pzz
292.821 -308.446 -571.241 6.85127 6.22806 22.5621 2.68332 -0.271704 0.296084 -4108.31 13.9704 3169
Loop time of 1079.26 on 1 procs for 5000 steps with 88 atoms

write_dump all custom output-tob11_ref.dump id type x y z fx fy fz

compute         rdf_nequip all rdf 400 1 3 1 3 1 3
fix             2 all ave/time 10 10 100 c_rdf_nequip[*] file tob11_Ref.rdf mode vector

run 5000
  update every 1 steps, delay 10 steps, check yes
Step Temp Press TotEng Lx Ly Lz Xy Yz Xz Pxx Pyy Pzz
5119    331.89865      11577.4   -571.00093    6.8416897     6.219349    22.530551    2.6795659  -0.27132447   0.29567045    11239.286    7131.9793    16360.936
Averages over the last 26 of 52 rows, steps 7700 to 10119:
Temp Press TotEng Lx Ly Lz Xy Yz Xz Pxx Pyy Pzz
299.208 601.155 -571.079 6.85302 6.22965 22.5679 2.684 -0.271774 0.29616 -3534.81 2099.48 3238.8
Loop time of 1094.24 on 1 procs for 5000 steps with 88 atoms
