LAMMPS (29 Sep 2021 - Update 2)

units	metal
dimension 3
atom_style atomic
boundary        p p p
newton off

box tilt large
read_data tob9_ref_deepmd.data
Reading data file ...
  triclinic box = (0.0000000 0.0000000 0.0000000) to (11.114968 7.4513556 9.3746986) with tilt (-0.17419075 -0.15353827 -1.9248620)
  reading atoms ...
  62 atoms

#special_bonds lj/coul 0.0 0.0 1.0
#atom_modify sort 0 0.0

pair_style	nequip
pair_coeff	* * tob9_l3-deployed.pth Ca H O Si
mass            1 40.079800
mass            4 28.08500
mass            3 15.9994
mass            2 1.00794

timestep 0.001

velocity all create 300 4928459 rot yes dist gaussian #温度初始化
min_style cg
minimize 1.0e-15 1.0e-15 100000 100000
  update every 1 steps, delay 0 steps, check yes
Step Temp E_pair E_mol TotEng Press
0          300   -451.11508            0   -448.74962    23229.612
Loop time of 19.8889 on 1 procs for 43 steps with 62 atoms

Minimization stats:
  Stopping criterion = energy tolerance
  Energy initial, next-to-last, final =
  Force two-norm initial, final = 21.368531 0.052007933
  Force max component initial, final = 7.2417865 0.011435519
  Final line search alpha, max atom move = 1.0000000 0.011435519
  Iterations, force evaluations = 43 85

thermo 100
#thermo_style  custom step temp etotal cella cellb cellc cellalpha cellbeta cellgamma pxx pyy pzz
thermo_style  custom step temp press etotal lx ly lz xy yz xz pxx pyy pzz

fix 1 all nvt temp 300.0 300.0 0.1

run 5000
Step Temp Press TotEng Lx Ly Lz Xy Yz Xz Pxx Pyy Pzz
43          300    3945.0139   -454.09697    11.114968    7.4513556    9.3746986  -0.17419075    -1.924862  -0.15353827    11498.572    -7259.024    7595.4933
Averages over the last 26 of 52 rows, steps 2600 to 5043:
Temp Press TotEng Lx Ly Lz Xy Yz Xz Pxx Pyy Pzz
295.298 5947.05 -451.76 11.115 7.45136 9.3747 -0.174191 -1.92486 -0.153538 15022.9 -7626.05 10444.3
Loop time of 760.106 on 1 procs for 5000 steps with 62 atoms

write_dump all custom output-tob9_ref.dump id type x y z fx fy fz

compute         rdf_nequip all rdf 400 1 3 1 3 1 3
fix             2 all ave/time 10 10 100 c_rdf_nequip[*] file tob9_Ref.rdf mode vector

run 5000
  update every 1 steps, delay 10 steps, check yes
Step Temp Press TotEng Lx Ly Lz Xy Yz Xz Pxx Pyy Pzz
5043     289.0764    2449.4513   -451.57727    11.114968    7.4513556    9.3746986  -0.17419075    -1.924862  -0.15353827    10576.996   -13020.137    9791.4949
Averages over the last 26 of 52 rows, steps 7600 to 10043:
Temp Press TotEng Lx Ly Lz Xy Yz Xz Pxx Pyy Pzz
303 6010.06 -451.623 11.115 7.45136 9.3747 -0.174191 -1.92486 -0.153538 16242.3 -9540.99 11328.9
Loop time of 755.423 on 1 procs for 5000 steps with 62 atoms
