LAMMPS (29 Sep 2021 - Update 2)

units	metal
atom_style atomic
boundary    p p p
newton off
#neighbor 1.0 bin
neigh_modify delay 0 every 1 check yes
#neigh_modify once no every 1 delay 0 check yes

box tilt large
read_data tob14_ref_deepmd.data
Reading data file ...
  triclinic box = (0.0000000 0.0000000 0.0000000) to (6.9541015 6.3530143 28.422936) with tilt (2.6303553 0.54033995 1.3928068)
  reading atoms ...
  104 atoms

pair_style	nequip
pair_coeff	* * tob14_l3-deployed.pth Ca Si O H
mass            1 40.079800
mass            2 28.08500
mass            3 15.9994
mass            4 1.00794

#kspace_style    ewald 1.0e-6

velocity all create 300 4928459 rot yes dist gaussian #温度初始化
timestep 0.001

thermo 100
thermo_style  custom step temp press etotal lx ly lz xy xz yz pxx pyy pzz

min_style cg
minimize 1.0e-15 1.0e-15 100000 100000
  update every 1 steps, delay 0 steps, check yes
Step Temp Press TotEng Lx Ly Lz Xy Xz Yz Pxx Pyy Pzz
0          300   -42317.274   -652.07471    6.9541015    6.3530143    28.422936    2.6303553   0.54033995    1.3928068   -44350.038   -54562.341   -28039.442
Loop time of 126.404 on 1 procs for 230 steps with 104 atoms

Minimization stats:
  Stopping criterion = energy tolerance
  Energy initial, next-to-last, final =
  Force two-norm initial, final = 18.141591 0.085263989
  Force max component initial, final = 3.8508694 0.019234998
  Final line search alpha, max atom move = 0.91086074 0.017520405
  Iterations, force evaluations = 230 462

fix 4 all nve
fix 5 all langevin 300.0 300.0 0.1 12345

run 5000
Step Temp Press TotEng Lx Ly Lz Xy Xz Yz Pxx Pyy Pzz
230          300   -32381.163   -659.74481    6.9541015    6.3530143    28.422936    2.6303553   0.54033995    1.3928068   -34108.425   -41813.535   -21221.531
Averages over the last 26 of 52 rows, steps 2800 to 5230:
Temp Press TotEng Lx Ly Lz Xy Xz Yz Pxx Pyy Pzz
308.401 -17684.5 -656.15 6.9541 6.35301 28.4229 2.63036 0.54034 1.39281 -20850.3 -30289.6 -1913.74
Loop time of 1299.33 on 1 procs for 5000 steps with 104 atoms

unfix 4
unfix 5

fix 1 all npt temp 300 300 0.1 aniso 1.01325 1.01325 1.0

run 10000
Step Temp Press TotEng Lx Ly Lz Xy Xz Yz Pxx Pyy Pzz
5230    336.63551   -14718.736   -656.02958    6.9541015    6.3530143    28.422936    2.6303553   0.54033995    1.3928068   -20559.565   -27176.857    3580.2128
Averages over the last 51 of 102 rows, steps 10300 to 15230:
Temp Press TotEng Lx Ly Lz Xy Xz Yz Pxx Pyy Pzz
296.86 -340.003 -657.045 6.80574 6.162 28.5001 2.55127 0.541807 1.39659 1098.6 -550.446 -1568.16
Loop time of 2740.79 on 1 procs for 10000 steps with 104 atoms

write_dump all custom output-tob14_nequip.dump id type x y z fx fy fz
