LAMMPS (29 Sep 2021 - Update 2)

units	metal
dimension 3
atom_style atomic
boundary        p p p
newton off

box tilt large
read_data tob14_ref_deepmd.data
Reading data file ...
  triclinic box = (0.0000000 0.0000000 0.0000000) to (6.9541015 6.3530143 28.422936) with tilt (2.6303553 0.54033995 1.3928068)
  reading atoms ...
  104 atoms

#special_bonds lj/coul 0.0 0.0 1.0
#atom_modify sort 0 0.0

pair_style	nequip
pair_coeff	* * tob14_l3-deployed.pth Ca Si O H
mass            1 40.079800
mass            2 28.08500
mass            3 15.9994
mass            4 1.00794

timestep 0.001

velocity all create 300 4928459 rot yes dist gaussian #温度初始化
min_style cg
minimize 1.0e-15 1.0e-15 100000 100000
  update every 1 steps, delay 0 steps, check yes
Step Temp E_pair E_mol TotEng Press
0          300   -656.06885            0   -652.07471   -42317.282
Loop time of 122.543 on 1 procs for 222 steps with 104 atoms

Minimization stats:
  Stopping criterion = energy tolerance
  Energy initial, next-to-last, final =
  Force two-norm initial, final = 18.141591 0.15679467
  Force max component initial, final = 3.8508689 0.041005787
  Final line search alpha, max atom move = 0.53702414 0.022021097
  Iterations, force evaluations = 222 444

thermo 100
#thermo_style  custom step temp etotal cella cellb cellc cellalpha cellbeta cellgamma pxx pyy pzz
thermo_style  custom step temp press etotal lx ly lz xy yz xz pxx pyy pzz

fix 1 all nvt temp 300.0 300.0 0.1
run 5000
Step Temp Press TotEng Lx Ly Lz Xy Yz Xz Pxx Pyy Pzz
222          300   -32191.588   -659.74237    6.9541015    6.3530143    28.422936    2.6303553    1.3928068   0.54033995   -33831.451   -41751.877   -20991.436
Averages over the last 26 of 52 rows, steps 2800 to 5222:
Temp Press TotEng Lx Ly Lz Xy Yz Xz Pxx Pyy Pzz
297.539 -24897.6 -655.858 6.9541 6.35301 28.4229 2.63036 1.39281 0.54034 -26209.8 -36223.8 -12259.2
Loop time of 1309.7 on 1 procs for 5000 steps with 104 atoms

write_dump all custom output-tob14_ref.dump id type x y z fx fy fz

compute         rdf_nequip all rdf 400 2 3 2 3 2 3
fix             2 all ave/time 10 10 100 c_rdf_nequip[*] file tob14_Ref.rdf mode vector

run 5000
  update every 1 steps, delay 10 steps, check yes
Step Temp Press TotEng Lx Ly Lz Xy Yz Xz Pxx Pyy Pzz
5222    315.00283   -33222.901   -655.68606    6.9541015    6.3530143    28.422936    2.6303553    1.3928068   0.54033995   -40640.143   -44620.027   -14408.533
Averages over the last 26 of 52 rows, steps 7800 to 10222:
Temp Press TotEng Lx Ly Lz Xy Yz Xz Pxx Pyy Pzz
295.371 -18996.3 -656.131 6.9541 6.35301 28.4229 2.63036 1.39281 0.54034 -26271.2 -26780 -3937.62
Loop time of 1305.95 on 1 procs for 5000 steps with 104 atoms
