LAMMPS (2 Aug 2023 - Update 1)
Loaded 1 plugins from /home/zkm/anaconda3/envs/deepmd/lib/deepmd_lmp
# Compute elastic constant tensor for a crystal at finite temperature
#
# WARNING: This script attempts to measure small differences in
# statistical averages generated by finite temperature MD simulations.
# This creates many more opportunities for errors to occur, compared
# to the zero temperature version provided in examples/ELASTIC.
# Hence, it is always a good idea to start with the zero temperature
# calculation, before attempting to use this script.
#
# Written by Aidan Thompson (Sandia, athomps@sandia.gov)
#
#  This script uses the following three include files.
#
#   init.mod      (must be modified for different crystal structures)
# 	       	  Define units, MD parameters, deformation parameters,
#		  and initial configuration of the atoms and simulation cell.
#
#
#   potential.mod    (must be modified for different pair styles)
# 		     Define pair style and other attributes
#		     not stored in restart file
#
#
#   displace.mod    (displace.mod should not need to be modified)
# 		    Perform positive and negative box displacements
# 		    It uses the resultant changes
#		    in stress to compute one
# 		    row of the elastic stiffness tensor
#
#		    Inputs variables:
#		    	   dir = the Voigt deformation component
#		    		    (1,2,3,4,5,6)
#		    Global constants:
#       	    	   up = the deformation magnitude (strain units)
#       		   cfac = conversion from LAMMPS pressure units to
#               	   output units for elastic constants
#
#
#  To run this on a different system, it should only be necessary to
#  modify the files init.mod and potential.mod. In order to calculate
#  the elastic constants correctly, care must be taken to specify
#  the correct units in init.mod (units, cfac and cunits). It is also
#  important to verify that the MD sampling of stress components
#  is generating accurate statistical averages.
#  One indication of this is that the elastic constants are insensitive
#  check for finite size effects.
#

# include init.mod

# NOTE: This script can be modified for different atomic structures,
# units, etc. See in.elastic for more info.
#

# Define the finite deformation size. Try several values of this
# variable to verify that results do not depend on it.
variable up equal 2.0e-2

# real units, elastic constants in GPa
units		metal
atom_style atomic
variable cfac equal 1.0e-4
variable cunits string GPa

# Define MD parameters
variable nevery equal 10                  # sampling interval
variable nrepeat equal 10                 # number of samples
variable nfreq equal 10*10
variable nthermo equal 100
variable nequil equal 10*100
variable nrun equal 3*100
variable temp equal 300                   # temperature of initial sample
variable timestep equal 0.001             # timestep
variable adiabatic equal 2                # adiabatic (1) or isothermal (2)
variable tdamp equal 0.1                 # time constant for thermostat
variable seed equal 123457                # seed for thermostat

# generate the box and atom positions using a diamond lattice
variable a equal 5.431

boundary	p p p

box tilt large

The 'box' command has been removed and will be ignored

read_data tob9_ref_deepmd.data
Reading data file ...
  triclinic box = (0 0 0) to (11.114968 7.4513556 9.3746986) with tilt (-0.17419075 -0.15353827 -1.924862)
  reading atoms ...
  62 atoms

pair_style	deepmd tob9_deepmd_compress.pb
Summary of lammps deepmd module ...
  >>> Info of deepmd-kit:
  installed to:       /home/zkm/anaconda3/envs/deepmd
  source:             v2.2.7
  source branch:       HEAD
  source commit:      839f4fe7
  source commit at:   2023-10-27 21:10:24 +0800
  surpport model ver.:1.1
  build variant:      cuda
  build with tf inc:  /home/zkm/anaconda3/envs/deepmd/include;/home/zkm/anaconda3/envs/deepmd/include
  build with tf lib:  /home/zkm/anaconda3/envs/deepmd/lib/libtensorflow_cc.so
  set tf intra_op_parallelism_threads: 0
  set tf inter_op_parallelism_threads: 0
  >>> Info of lammps module:
  use deepmd-kit at:  /home/zkm/anaconda3/envs/deepmdpair_coeff	* * Ca H O Si
mass            1 40.079800
mass            4 28.08500
mass            3 15.9994
mass            2 1.00794

change_box all triclinic
Changing box ...
  triclinic box = (0 0 0) to (11.114968 7.4513556 9.3746986) with tilt (-0.17419075 -0.15353827 -1.924862)

velocity	all create 300 87287

thermo 100
min_style cg
minimize 1.0e-15 1.0e-15 100000 100000 #设置能量最小化

CITE-CITE-CITE-CITE-CITE-CITE-CITE-CITE-CITE-CITE-CITE-CITE-CITE

Your simulation uses code contributions which should be cited:

- USER-DEEPMD package:

@article{Wang_ComputPhysCommun_2018_v228_p178,
  author = {Wang, Han and Zhang, Linfeng and Han, Jiequn and E, Weinan},
  doi = {10.1016/j.cpc.2018.03.016},
  url = {https://doi.org/10.1016/j.cpc.2018.03.016},
  year = 2018,
  month = {jul},
  publisher = {Elsevier {BV}},
  volume = 228,
  journal = {Comput. Phys. Commun.},
  title = {{DeePMD-kit: A deep learning package for many-body potential energy representation and molecular dynamics}},
  pages = {178--184}
}
@misc{Zeng_JChemPhys_2023_v159_p054801,
  title  = {{DeePMD-kit v2: A software package for deep potential models}},
  author =   {Jinzhe Zeng and Duo Zhang and Denghui Lu and Pinghui Mo and Zeyu Li
         and Yixiao Chen and Mari{\'a}n Rynik and Li'ang Huang and Ziyao Li and
         Shaochen Shi and Yingze Wang and Haotian Ye and Ping Tuo and Jiabin
         Yang and Ye Ding and Yifan Li and Davide Tisi and Qiyu Zeng and Han
         Bao and Yu Xia and Jiameng Huang and Koki Muraoka and Yibo Wang and
         Junhan Chang and Fengbo Yuan and Sigbj{\o}rn L{\o}land Bore and Chun
         Cai and Yinnian Lin and Bo Wang and Jiayan Xu and Jia-Xin Zhu and
         Chenxing Luo and Yuzhi Zhang and Rhys E A Goodall and Wenshuo Liang
         and Anurag Kumar Singh and Sikai Yao and Jingchao Zhang and Renata
         Wentzcovitch and Jiequn Han and Jie Liu and Weile Jia and Darrin M
         York and Weinan E and Roberto Car and Linfeng Zhang and Han Wang},
  journal =  {J. Chem. Phys.},
  volume =   159,
  issue =    5,
  year =    2023,
  pages  =   054801,
  doi =      {10.1063/5.0155600},
}

CITE-CITE-CITE-CITE-CITE-CITE-CITE-CITE-CITE-CITE-CITE-CITE-CITE

Generated 0 of 6 mixed pair_coeff terms from geometric mixing rule
Step          Temp          E_pair         E_mol          TotEng         Press
0   300           -451.17407      0             -448.8086       20224.121
Loop time of 2.57015 on 1 procs for 204 steps with 62 atoms

Minimization stats:
  Stopping criterion = energy tolerance
  Energy initial, next-to-last, final =
  Force two-norm initial, final = 21.373936 4.3506596e-06
  Force max component initial, final = 7.3208246 9.0154977e-07
  Final line search alpha, max atom move = 1 9.0154977e-07
  Iterations, force evaluations = 204 407

thermo_style  custom step temp press etotal lx ly lz xy yz xz pxx pyy pzz

fix 456 all nve
fix 567 all langevin 300.0 300.0 0.1 12345

run 5000
Generated 0 of 6 mixed pair_coeff terms from geometric mixing rule
Step          Temp          Press          TotEng           Lx             Ly             Lz             Xy             Yz             Xz            Pxx            Pyy            Pzz
204   300            1591.9575     -454.27354      11.114968      7.4513556      9.3746986     -0.17419075    -1.924862      -0.15353827     3949.1057      939.15999     -112.39306
Averages over the last 26 of 52 rows, steps 2800 to 5204:
Temp Press TotEng Lx Ly Lz Xy Yz Xz Pxx Pyy Pzz
301.236 -3.3315 -452.975 11.115 7.45136 9.3747 -0.174191 -1.92486 -0.153538 7052.06 -12916.5 5854.46
Loop time of 31.5385 on 1 procs for 5000 steps with 62 atoms

unfix 456
unfix 567
fix 123 all npt temp 300 300 0.1 tri 1.0 1.0 1
run 10000
Generated 0 of 6 mixed pair_coeff terms from geometric mixing rule
Step          Temp          Press          TotEng           Lx             Ly             Lz             Xy             Yz             Xz            Pxx            Pyy            Pzz
5204   291.7539      -3421.0261     -452.71237      11.114968      7.4513556      9.3746986     -0.17419075    -1.924862      -0.15353827    -482.61746     -18755.638      8975.1771
Averages over the last 51 of 102 rows, steps 10300 to 15204:
Temp Press TotEng Lx Ly Lz Xy Yz Xz Pxx Pyy Pzz
296.311 797.142 -453.188 11.1959 7.38126 9.40951 -0.00607591 -1.86111 0.00961054 1242.64 43.4963 1105.3
Loop time of 62.3701 on 1 procs for 10000 steps with 62 atoms

unfix 123

# Compute initial state

variable thermostat equal 0
include potential.mod
# NOTE: This script can be modified for different pair styles
# See in.elastic for more info.

# we must undefine any fix ave/* fix before using reset_timestep
if "$(is_defined(fix,avp))" then "unfix avp"
reset_timestep 0

# Choose potential
# pair_style	sw
# pair_coeff * * Si.sw Si

pair_style	deepmd tob9_deepmd_compress.pb
pair_coeff	* * Ca H O Si

atom_modify sort 0 0.0
#kspace_style	ewald 1.0e-6# Setup neighbor style

#neighbor 2.0 bin
neigh_modify once no every 1 delay 0 check yes

# Setup output

fix avp all ave/time  10 10 100 c_thermo_press mode vector

#min_style cg
#minimize 1.0e-15 1.0e-15 10000 10000 #设置能量最小化

thermo		100
thermo_style custom step temp pe press f_avp[1] f_avp[2] f_avp[3] f_avp[4] f_avp[5] f_avp[6]
thermo_modify norm no

# Setup MD

timestep 0.001
fix 4 all nve

run 1000
Generated 0 of 6 mixed pair_coeff terms from geometric mixing rule
Step          Temp          PotEng         Press         f_avp[1]       f_avp[2]       f_avp[3]       f_avp[4]       f_avp[5]       f_avp[6]
0   276.25459     -455.50433     -6875.8895      0              0              0              0              0              0
Averages over the last 6 of 11 rows, steps 500 to 1000:
Temp PotEng Press f_avp[1] f_avp[2] f_avp[3] f_avp[4] f_avp[5] f_avp[6]
284.319 -455.568 -1694.7 1339.68 5273.95 -14881.8 -13406.5 274.533 -5312.89
Loop time of 6.21711 on 1 procs for 1000 steps with 62 atoms

variable thermostat equal 1

print 1
1

include potential.mod
# NOTE: This script can be modified for different pair styles
# See in.elastic for more info.

# we must undefine any fix ave/* fix before using reset_timestep
if "$(is_defined(fix,avp))" then "unfix avp"
unfix avp
reset_timestep 0

# Choose potential
# pair_style	sw
# pair_coeff * * Si.sw Si

pair_style	deepmd tob9_deepmd_compress.pb
pair_coeff	* * Ca H O Si

atom_modify sort 0 0.0
#kspace_style	ewald 1.0e-6# Setup neighbor style

#neighbor 2.0 bin
neigh_modify once no every 1 delay 0 check yes

# Setup output

fix avp all ave/time  10 10 100 c_thermo_press mode vector

#min_style cg
#minimize 1.0e-15 1.0e-15 10000 10000 #设置能量最小化

thermo		100
thermo_style custom step temp pe press f_avp[1] f_avp[2] f_avp[3] f_avp[4] f_avp[5] f_avp[6]
thermo_modify norm no

# Setup MD

timestep 0.001
fix 4 all nve
fix 5 all langevin 300 300 0.1 123457

run 300
Generated 0 of 6 mixed pair_coeff terms from geometric mixing rule
Step          Temp          PotEng         Press         f_avp[1]       f_avp[2]       f_avp[3]       f_avp[4]       f_avp[5]       f_avp[6]
0   302.68312     -455.71275     -13087.053      0              0              0              0              0              0
Loop time of 1.88729 on 1 procs for 300 steps with 62 atoms

variable pxx0 equal f_avp[1]
variable pyy0 equal f_avp[2]
variable pzz0 equal f_avp[3]
variable pxy0 equal f_avp[4]
variable pxz0 equal f_avp[5]
variable pyz0 equal f_avp[6]

variable tmp equal lx
variable lx0 equal 11.1678120839068
variable tmp equal ly
variable ly0 equal 7.33635257958294
variable tmp equal lz
variable lz0 equal 9.54292732499844

# These formulas define the derivatives w.r.t. strain components
# Constants uses $, variables use v_
variable d1 equal -(v_pxx1--2953.32997066779)/(v_delta/v_len0)*0.0001
variable d2 equal -(v_pyy1-9276.20707451053)/(v_delta/v_len0)*0.0001
variable d3 equal -(v_pzz1--13790.8489890524)/(v_delta/v_len0)*0.0001
variable d4 equal -(v_pyz1--8966.1847503545)/(v_delta/v_len0)*0.0001
variable d5 equal -(v_pxz1-1105.82082938894)/(v_delta/v_len0)*0.0001
variable d6 equal -(v_pxy1--13471.0408431112)/(v_delta/v_len0)*0.0001

# Write restart
write_restart restart.equil
System init for write_restart ...
Generated 0 of 6 mixed pair_coeff terms from geometric mixing rule

# uxx Perturbation

variable dir equal 1
include displace.mod
# NOTE: This script should not need to be
# modified. See in.elastic for more info.
#
# Find which reference length to use

variable len0 equal 11.1678120839068

# Reset box and simulation parameters

clear
Loaded 1 plugins from /home/zkm/anaconda3/envs/deepmd/lib/deepmd_lmp
box tilt large

The 'box' command has been removed and will be ignored

read_restart restart.equil
Reading restart file ...
  restart file = 2 Aug 2023, LAMMPS = 2 Aug 2023
  restoring atom style atomic from restart
  triclinic box = (-0.026421927 0.057501491 -0.084114365) to (11.14139 7.3938541 9.458813) with tilt (0.18407555 -0.079489538 -1.736548)
Summary of lammps deepmd module ...
  >>> Info of deepmd-kit:
  installed to:       /home/zkm/anaconda3/envs/deepmd
  source:             v2.2.7
  source branch:       HEAD
  source commit:      839f4fe7
  source commit at:   2023-10-27 21:10:24 +0800
  surpport model ver.:1.1
  build variant:      cuda
  build with tf inc:  /home/zkm/anaconda3/envs/deepmd/include;/home/zkm/anaconda3/envs/deepmd/include
  build with tf lib:  /home/zkm/anaconda3/envs/deepmd/lib/libtensorflow_cc.so
  set tf intra_op_parallelism_threads: 0
  set tf inter_op_parallelism_threads: 0
  >>> Info of lammps module:
  use deepmd-kit at:  /home/zkm/anaconda3/envs/deepmd  restoring pair style deepmd from restart
  62 atoms
  read_restart CPU = 0.001 seconds
include potential.mod
# NOTE: This script can be modified for different pair styles
# See in.elastic for more info.

# we must undefine any fix ave/* fix before using reset_timestep
if "$(is_defined(fix,avp))" then "unfix avp"
reset_timestep 0

# Choose potential
# pair_style	sw
# pair_coeff * * Si.sw Si

pair_style	deepmd tob9_deepmd_compress.pb
pair_coeff	* * Ca H O Si

atom_modify sort 0 0.0
#kspace_style	ewald 1.0e-6# Setup neighbor style

#neighbor 2.0 bin
neigh_modify once no every 1 delay 0 check yes

# Setup output

fix avp all ave/time  10 10 100 c_thermo_press mode vector

#min_style cg
#minimize 1.0e-15 1.0e-15 10000 10000 #设置能量最小化

thermo		100
thermo_style custom step temp pe press f_avp[1] f_avp[2] f_avp[3] f_avp[4] f_avp[5] f_avp[6]
thermo_modify norm no

# Setup MD

timestep 0.001
fix 4 all nve
fix 5 all langevin 300 300 0.1 123457

# Negative deformation

variable delta equal -0.02*11.1678120839068
variable deltaxy equal -0.02*xy
variable deltaxz equal -0.02*xz
variable deltayz equal -0.02*yz
change_box all x delta 0 -0.223356241678136 xy delta -0.00368151092707633 xz delta 0.0015897907664871 remap units box
Changing box ...
  triclinic box = (-0.026421927 0.057501491 -0.084114365) to (10.918034 7.3938541 9.458813) with tilt (0.18407555 -0.079489538 -1.736548)
  triclinic box = (-0.026421927 0.057501491 -0.084114365) to (10.918034 7.3938541 9.458813) with tilt (0.18039404 -0.079489538 -1.736548)
  triclinic box = (-0.026421927 0.057501491 -0.084114365) to (10.918034 7.3938541 9.458813) with tilt (0.18039404 -0.077899748 -1.736548)

# Run MD

run 1000
Generated 0 of 6 mixed pair_coeff terms from geometric mixing rule
Step          Temp          PotEng         Press         f_avp[1]       f_avp[2]       f_avp[3]       f_avp[4]       f_avp[5]       f_avp[6]
0   286.95655     -455.3294       35059.733      0              0              0              0              0              0
Averages over the last 6 of 11 rows, steps 500 to 1000:
Temp PotEng Press f_avp[1] f_avp[2] f_avp[3] f_avp[4] f_avp[5] f_avp[6]
320.5 -455.118 15965.2 35385.4 17102.2 -6894.84 -12917.3 -615.029 -6084.88
Loop time of 6.2544 on 1 procs for 1000 steps with 62 atoms

include potential.mod
# NOTE: This script can be modified for different pair styles
# See in.elastic for more info.

# we must undefine any fix ave/* fix before using reset_timestep
if "$(is_defined(fix,avp))" then "unfix avp"
unfix avp
reset_timestep 0

# Choose potential
# pair_style	sw
# pair_coeff * * Si.sw Si

pair_style	deepmd tob9_deepmd_compress.pb
pair_coeff	* * Ca H O Si

atom_modify sort 0 0.0
#kspace_style	ewald 1.0e-6# Setup neighbor style

#neighbor 2.0 bin
neigh_modify once no every 1 delay 0 check yes

# Setup output

fix avp all ave/time  10 10 100 c_thermo_press mode vector

#min_style cg
#minimize 1.0e-15 1.0e-15 10000 10000 #设置能量最小化

thermo		100
thermo_style custom step temp pe press f_avp[1] f_avp[2] f_avp[3] f_avp[4] f_avp[5] f_avp[6]
thermo_modify norm no

# Setup MD

timestep 0.001
fix 4 all nve
fix 5 all langevin 300 300 0.1 123457

run 300
Generated 0 of 6 mixed pair_coeff terms from geometric mixing rule
Step          Temp          PotEng         Press         f_avp[1]       f_avp[2]       f_avp[3]       f_avp[4]       f_avp[5]       f_avp[6]
0   342.80991     -455.54099      19183.066      0              0              0              0              0              0
Loop time of 1.75438 on 1 procs for 300 steps with 62 atoms

# Obtain new stress tensor

variable pxx1 equal f_avp[1]
variable pyy1 equal f_avp[2]
variable pzz1 equal f_avp[3]
variable pxy1 equal f_avp[4]
variable pxz1 equal f_avp[5]
variable pyz1 equal f_avp[6]

# Compute elastic constant from pressure tensor

variable C1neg equal 166.562127514941
variable C2neg equal 48.0881608267679
variable C3neg equal 35.3360688445612
variable C4neg equal -1.97560775185985
variable C5neg equal -6.43676987235805
variable C6neg equal 1.396181240533

# Reset box and simulation parameters

clear
Loaded 1 plugins from /home/zkm/anaconda3/envs/deepmd/lib/deepmd_lmp
box tilt large

The 'box' command has been removed and will be ignored

read_restart restart.equil
Reading restart file ...
  restart file = 2 Aug 2023, LAMMPS = 2 Aug 2023
  restoring atom style atomic from restart
  triclinic box = (-0.026421927 0.057501491 -0.084114365) to (11.14139 7.3938541 9.458813) with tilt (0.18407555 -0.079489538 -1.736548)
Summary of lammps deepmd module ...
  >>> Info of deepmd-kit:
  installed to:       /home/zkm/anaconda3/envs/deepmd
  source:             v2.2.7
  source branch:       HEAD
  source commit:      839f4fe7
  source commit at:   2023-10-27 21:10:24 +0800
  surpport model ver.:1.1
  build variant:      cuda
  build with tf inc:  /home/zkm/anaconda3/envs/deepmd/include;/home/zkm/anaconda3/envs/deepmd/include
  build with tf lib:  /home/zkm/anaconda3/envs/deepmd/lib/libtensorflow_cc.so
  set tf intra_op_parallelism_threads: 0
  set tf inter_op_parallelism_threads: 0
  >>> Info of lammps module:
  use deepmd-kit at:  /home/zkm/anaconda3/envs/deepmd  restoring pair style deepmd from restart
  62 atoms
  read_restart CPU = 0.000 seconds
include potential.mod
# NOTE: This script can be modified for different pair styles
# See in.elastic for more info.

# we must undefine any fix ave/* fix before using reset_timestep
if "$(is_defined(fix,avp))" then "unfix avp"
reset_timestep 0

# Choose potential
# pair_style	sw
# pair_coeff * * Si.sw Si

pair_style	deepmd tob9_deepmd_compress.pb
pair_coeff	* * Ca H O Si

atom_modify sort 0 0.0
#kspace_style	ewald 1.0e-6# Setup neighbor style

#neighbor 2.0 bin
neigh_modify once no every 1 delay 0 check yes

# Setup output

fix avp all ave/time  10 10 100 c_thermo_press mode vector

#min_style cg
#minimize 1.0e-15 1.0e-15 10000 10000 #设置能量最小化

thermo		100
thermo_style custom step temp pe press f_avp[1] f_avp[2] f_avp[3] f_avp[4] f_avp[5] f_avp[6]
thermo_modify norm no

# Setup MD

timestep 0.001
fix 4 all nve
fix 5 all langevin 300 300 0.1 123457

# Positive deformation

variable delta equal 0.02*11.1678120839068
variable deltaxy equal 0.02*xy
variable deltaxz equal 0.02*xz
variable deltayz equal 0.02*yz
change_box all x delta 0 0.223356241678136 xy delta 0.00368151092707633 xz delta -0.0015897907664871 remap units box
Changing box ...
  triclinic box = (-0.026421927 0.057501491 -0.084114365) to (11.364746 7.3938541 9.458813) with tilt (0.18407555 -0.079489538 -1.736548)
  triclinic box = (-0.026421927 0.057501491 -0.084114365) to (11.364746 7.3938541 9.458813) with tilt (0.18775706 -0.079489538 -1.736548)
  triclinic box = (-0.026421927 0.057501491 -0.084114365) to (11.364746 7.3938541 9.458813) with tilt (0.18775706 -0.081079329 -1.736548)

# Run MD

run 1000
Generated 0 of 6 mixed pair_coeff terms from geometric mixing rule
Step          Temp          PotEng         Press         f_avp[1]       f_avp[2]       f_avp[3]       f_avp[4]       f_avp[5]       f_avp[6]
0   286.95655     -455.18268     -37459.151      0              0              0              0              0              0
Averages over the last 6 of 11 rows, steps 500 to 1000:
Temp PotEng Press f_avp[1] f_avp[2] f_avp[3] f_avp[4] f_avp[5] f_avp[6]
316.814 -454.916 -20283.9 -26829.7 -3108.49 -20788.4 -11578.8 -1134.35 -5632.87
Loop time of 6.31597 on 1 procs for 1000 steps with 62 atoms

include potential.mod
# NOTE: This script can be modified for different pair styles
# See in.elastic for more info.

# we must undefine any fix ave/* fix before using reset_timestep
if "$(is_defined(fix,avp))" then "unfix avp"
unfix avp
reset_timestep 0

# Choose potential
# pair_style	sw
# pair_coeff * * Si.sw Si

pair_style	deepmd tob9_deepmd_compress.pb
pair_coeff	* * Ca H O Si

atom_modify sort 0 0.0
#kspace_style	ewald 1.0e-6# Setup neighbor style

#neighbor 2.0 bin
neigh_modify once no every 1 delay 0 check yes

# Setup output

fix avp all ave/time  10 10 100 c_thermo_press mode vector

#min_style cg
#minimize 1.0e-15 1.0e-15 10000 10000 #设置能量最小化

thermo		100
thermo_style custom step temp pe press f_avp[1] f_avp[2] f_avp[3] f_avp[4] f_avp[5] f_avp[6]
thermo_modify norm no

# Setup MD

timestep 0.001
fix 4 all nve
fix 5 all langevin 300 300 0.1 123457

run 300
Generated 0 of 6 mixed pair_coeff terms from geometric mixing rule
Step          Temp          PotEng         Press         f_avp[1]       f_avp[2]       f_avp[3]       f_avp[4]       f_avp[5]       f_avp[6]
0   335.1224      -455.34139     -17078.841      0              0              0              0              0              0
Loop time of 1.96562 on 1 procs for 300 steps with 62 atoms

# Obtain new stress tensor

variable pxx1 equal f_avp[1]
variable pyy1 equal f_avp[2]
variable pzz1 equal f_avp[3]
variable pxy1 equal f_avp[4]
variable pxz1 equal f_avp[5]
variable pyz1 equal f_avp[6]

# Compute elastic constant from pressure tensor

variable C1pos equal 136.806636564091
variable C2pos equal 54.2717428623864
variable C3pos equal 35.2782005044
variable C4pos equal -8.1140927858386
variable C5pos equal 7.04493637197444
variable C6pos equal -1.6124233719205

# Combine positive and negative

variable C11 equal 0.5*(166.562127514941+136.806636564091)
variable C21 equal 0.5*(48.0881608267679+54.2717428623864)
variable C31 equal 0.5*(35.3360688445612+35.2782005044)
variable C41 equal 0.5*(-1.97560775185985+-8.1140927858386)
variable C51 equal 0.5*(-6.43676987235805+7.04493637197444)
variable C61 equal 0.5*(1.396181240533+-1.6124233719205)

# Delete dir to make sure it is not reused

variable dir delete

# uyy Perturbation

variable dir equal 2
include displace.mod
# NOTE: This script should not need to be
# modified. See in.elastic for more info.
#
# Find which reference length to use

variable len0 equal 7.33635257958294

# Reset box and simulation parameters

clear
Loaded 1 plugins from /home/zkm/anaconda3/envs/deepmd/lib/deepmd_lmp
box tilt large

The 'box' command has been removed and will be ignored

read_restart restart.equil
Reading restart file ...
  restart file = 2 Aug 2023, LAMMPS = 2 Aug 2023
  restoring atom style atomic from restart
  triclinic box = (-0.026421927 0.057501491 -0.084114365) to (11.14139 7.3938541 9.458813) with tilt (0.18407555 -0.079489538 -1.736548)
Summary of lammps deepmd module ...
  >>> Info of deepmd-kit:
  installed to:       /home/zkm/anaconda3/envs/deepmd
  source:             v2.2.7
  source branch:       HEAD
  source commit:      839f4fe7
  source commit at:   2023-10-27 21:10:24 +0800
  surpport model ver.:1.1
  build variant:      cuda
  build with tf inc:  /home/zkm/anaconda3/envs/deepmd/include;/home/zkm/anaconda3/envs/deepmd/include
  build with tf lib:  /home/zkm/anaconda3/envs/deepmd/lib/libtensorflow_cc.so
  set tf intra_op_parallelism_threads: 0
  set tf inter_op_parallelism_threads: 0
  >>> Info of lammps module:
  use deepmd-kit at:  /home/zkm/anaconda3/envs/deepmd  restoring pair style deepmd from restart
  62 atoms
  read_restart CPU = 0.000 seconds
include potential.mod
# NOTE: This script can be modified for different pair styles
# See in.elastic for more info.

# we must undefine any fix ave/* fix before using reset_timestep
if "$(is_defined(fix,avp))" then "unfix avp"
reset_timestep 0

# Choose potential
# pair_style	sw
# pair_coeff * * Si.sw Si

pair_style	deepmd tob9_deepmd_compress.pb
pair_coeff	* * Ca H O Si

atom_modify sort 0 0.0
#kspace_style	ewald 1.0e-6# Setup neighbor style

#neighbor 2.0 bin
neigh_modify once no every 1 delay 0 check yes

# Setup output

fix avp all ave/time  10 10 100 c_thermo_press mode vector

#min_style cg
#minimize 1.0e-15 1.0e-15 10000 10000 #设置能量最小化

thermo		100
thermo_style custom step temp pe press f_avp[1] f_avp[2] f_avp[3] f_avp[4] f_avp[5] f_avp[6]
thermo_modify norm no

# Setup MD

timestep 0.001
fix 4 all nve
fix 5 all langevin 300 300 0.1 123457

# Negative deformation

variable delta equal -0.02*7.33635257958294
variable deltaxy equal -0.02*xy
variable deltaxz equal -0.02*xz
variable deltayz equal -0.02*yz
change_box all y delta 0 -0.146727051591659 yz delta 0.0347309592745638 remap units box
Changing box ...
  triclinic box = (-0.026421927 0.057501491 -0.084114365) to (11.14139 7.247127 9.458813) with tilt (0.18407555 -0.079489538 -1.736548)
  triclinic box = (-0.026421927 0.057501491 -0.084114365) to (11.14139 7.247127 9.458813) with tilt (0.18407555 -0.079489538 -1.701817)

# Run MD

run 1000
Generated 0 of 6 mixed pair_coeff terms from geometric mixing rule
Step          Temp          PotEng         Press         f_avp[1]       f_avp[2]       f_avp[3]       f_avp[4]       f_avp[5]       f_avp[6]
0   286.95655     -455.30915      23191.388      0              0              0              0              0              0
Averages over the last 6 of 11 rows, steps 500 to 1000:
Temp PotEng Press f_avp[1] f_avp[2] f_avp[3] f_avp[4] f_avp[5] f_avp[6]
315.679 -455.05 14760.9 12280.5 34946.4 -7573.69 -13308 -1222.28 -5817.33
Loop time of 5.80255 on 1 procs for 1000 steps with 62 atoms

include potential.mod
# NOTE: This script can be modified for different pair styles
# See in.elastic for more info.

# we must undefine any fix ave/* fix before using reset_timestep
if "$(is_defined(fix,avp))" then "unfix avp"
unfix avp
reset_timestep 0

# Choose potential
# pair_style	sw
# pair_coeff * * Si.sw Si

pair_style	deepmd tob9_deepmd_compress.pb
pair_coeff	* * Ca H O Si

atom_modify sort 0 0.0
#kspace_style	ewald 1.0e-6# Setup neighbor style

#neighbor 2.0 bin
neigh_modify once no every 1 delay 0 check yes

# Setup output

fix avp all ave/time  10 10 100 c_thermo_press mode vector

#min_style cg
#minimize 1.0e-15 1.0e-15 10000 10000 #设置能量最小化

thermo		100
thermo_style custom step temp pe press f_avp[1] f_avp[2] f_avp[3] f_avp[4] f_avp[5] f_avp[6]
thermo_modify norm no

# Setup MD

timestep 0.001
fix 4 all nve
fix 5 all langevin 300 300 0.1 123457

run 300
Generated 0 of 6 mixed pair_coeff terms from geometric mixing rule
Step          Temp          PotEng         Press         f_avp[1]       f_avp[2]       f_avp[3]       f_avp[4]       f_avp[5]       f_avp[6]
0   340.39222     -455.55022      18023.487      0              0              0              0              0              0
Loop time of 1.7159 on 1 procs for 300 steps with 62 atoms

# Obtain new stress tensor

variable pxx1 equal f_avp[1]
variable pyy1 equal f_avp[2]
variable pzz1 equal f_avp[3]
variable pxy1 equal f_avp[4]
variable pxz1 equal f_avp[5]
variable pyz1 equal f_avp[6]

# Compute elastic constant from pressure tensor

variable C1neg equal 56.9889141547926
variable C2neg equal 142.27803594855
variable C3neg equal 29.4185076732596
variable C4neg equal -1.48946192147815
variable C5neg equal -7.30184709261313
variable C6neg equal -2.347436621277

# Reset box and simulation parameters

clear
Loaded 1 plugins from /home/zkm/anaconda3/envs/deepmd/lib/deepmd_lmp
box tilt large

The 'box' command has been removed and will be ignored

read_restart restart.equil
Reading restart file ...
  restart file = 2 Aug 2023, LAMMPS = 2 Aug 2023
  restoring atom style atomic from restart
  triclinic box = (-0.026421927 0.057501491 -0.084114365) to (11.14139 7.3938541 9.458813) with tilt (0.18407555 -0.079489538 -1.736548)
Summary of lammps deepmd module ...
  >>> Info of deepmd-kit:
  installed to:       /home/zkm/anaconda3/envs/deepmd
  source:             v2.2.7
  source branch:       HEAD
  source commit:      839f4fe7
  source commit at:   2023-10-27 21:10:24 +0800
  surpport model ver.:1.1
  build variant:      cuda
  build with tf inc:  /home/zkm/anaconda3/envs/deepmd/include;/home/zkm/anaconda3/envs/deepmd/include
  build with tf lib:  /home/zkm/anaconda3/envs/deepmd/lib/libtensorflow_cc.so
  set tf intra_op_parallelism_threads: 0
  set tf inter_op_parallelism_threads: 0
  >>> Info of lammps module:
  use deepmd-kit at:  /home/zkm/anaconda3/envs/deepmd  restoring pair style deepmd from restart
  62 atoms
  read_restart CPU = 0.001 seconds
include potential.mod
# NOTE: This script can be modified for different pair styles
# See in.elastic for more info.

# we must undefine any fix ave/* fix before using reset_timestep
if "$(is_defined(fix,avp))" then "unfix avp"
reset_timestep 0

# Choose potential
# pair_style	sw
# pair_coeff * * Si.sw Si

pair_style	deepmd tob9_deepmd_compress.pb
pair_coeff	* * Ca H O Si

atom_modify sort 0 0.0
#kspace_style	ewald 1.0e-6# Setup neighbor style

#neighbor 2.0 bin
neigh_modify once no every 1 delay 0 check yes

# Setup output

fix avp all ave/time  10 10 100 c_thermo_press mode vector

#min_style cg
#minimize 1.0e-15 1.0e-15 10000 10000 #设置能量最小化

thermo		100
thermo_style custom step temp pe press f_avp[1] f_avp[2] f_avp[3] f_avp[4] f_avp[5] f_avp[6]
thermo_modify norm no

# Setup MD

timestep 0.001
fix 4 all nve
fix 5 all langevin 300 300 0.1 123457

# Positive deformation

variable delta equal 0.02*7.33635257958294
variable deltaxy equal 0.02*xy
variable deltaxz equal 0.02*xz
variable deltayz equal 0.02*yz
change_box all y delta 0 0.146727051591659 yz delta -0.0347309592745638 remap units box
Changing box ...
  triclinic box = (-0.026421927 0.057501491 -0.084114365) to (11.14139 7.5405811 9.458813) with tilt (0.18407555 -0.079489538 -1.736548)
  triclinic box = (-0.026421927 0.057501491 -0.084114365) to (11.14139 7.5405811 9.458813) with tilt (0.18407555 -0.079489538 -1.7712789)

# Run MD

run 1000
Generated 0 of 6 mixed pair_coeff terms from geometric mixing rule
Step          Temp          PotEng         Press         f_avp[1]       f_avp[2]       f_avp[3]       f_avp[4]       f_avp[5]       f_avp[6]
0   286.95655     -455.47682     -27022.142      0              0              0              0              0              0
Averages over the last 6 of 11 rows, steps 500 to 1000:
Temp PotEng Press f_avp[1] f_avp[2] f_avp[3] f_avp[4] f_avp[5] f_avp[6]
322.85 -455.008 -20942.7 -7849.51 -22830.9 -20873 -11573.9 -228.228 -6007.71
Loop time of 5.74963 on 1 procs for 1000 steps with 62 atoms

include potential.mod
# NOTE: This script can be modified for different pair styles
# See in.elastic for more info.

# we must undefine any fix ave/* fix before using reset_timestep
if "$(is_defined(fix,avp))" then "unfix avp"
unfix avp
reset_timestep 0

# Choose potential
# pair_style	sw
# pair_coeff * * Si.sw Si

pair_style	deepmd tob9_deepmd_compress.pb
pair_coeff	* * Ca H O Si

atom_modify sort 0 0.0
#kspace_style	ewald 1.0e-6# Setup neighbor style

#neighbor 2.0 bin
neigh_modify once no every 1 delay 0 check yes

# Setup output

fix avp all ave/time  10 10 100 c_thermo_press mode vector

#min_style cg
#minimize 1.0e-15 1.0e-15 10000 10000 #设置能量最小化

thermo		100
thermo_style custom step temp pe press f_avp[1] f_avp[2] f_avp[3] f_avp[4] f_avp[5] f_avp[6]
thermo_modify norm no

# Setup MD

timestep 0.001
fix 4 all nve
fix 5 all langevin 300 300 0.1 123457

run 300
Generated 0 of 6 mixed pair_coeff terms from geometric mixing rule
Step          Temp          PotEng         Press         f_avp[1]       f_avp[2]       f_avp[3]       f_avp[4]       f_avp[5]       f_avp[6]
0   358.49047     -455.4331      -19544.782      0              0              0              0              0              0
Loop time of 1.72918 on 1 procs for 300 steps with 62 atoms

# Obtain new stress tensor

variable pxx1 equal f_avp[1]
variable pyy1 equal f_avp[2]
variable pzz1 equal f_avp[3]
variable pxy1 equal f_avp[4]
variable pxz1 equal f_avp[5]
variable pyz1 equal f_avp[6]

# Compute elastic constant from pressure tensor

variable C1pos equal 46.3550160163915
variable C2pos equal 155.895012024392
variable C3pos equal 33.7993508224734
variable C4pos equal -4.20324531336514
variable C5pos equal 0.205549143351149
variable C6pos equal 0.172976884140007

# Combine positive and negative

variable C12 equal 0.5*(56.9889141547926+46.3550160163915)
variable C22 equal 0.5*(142.27803594855+155.895012024392)
variable C32 equal 0.5*(29.4185076732596+33.7993508224734)
variable C42 equal 0.5*(-1.48946192147815+-4.20324531336514)
variable C52 equal 0.5*(-7.30184709261313+0.205549143351149)
variable C62 equal 0.5*(-2.347436621277+0.172976884140007)

# Delete dir to make sure it is not reused

variable dir delete

# uzz Perturbation

variable dir equal 3
include displace.mod
# NOTE: This script should not need to be
# modified. See in.elastic for more info.
#
# Find which reference length to use

variable len0 equal 9.54292732499844

# Reset box and simulation parameters

clear
Loaded 1 plugins from /home/zkm/anaconda3/envs/deepmd/lib/deepmd_lmp
box tilt large

The 'box' command has been removed and will be ignored

read_restart restart.equil
Reading restart file ...
  restart file = 2 Aug 2023, LAMMPS = 2 Aug 2023
  restoring atom style atomic from restart
  triclinic box = (-0.026421927 0.057501491 -0.084114365) to (11.14139 7.3938541 9.458813) with tilt (0.18407555 -0.079489538 -1.736548)
Summary of lammps deepmd module ...
  >>> Info of deepmd-kit:
  installed to:       /home/zkm/anaconda3/envs/deepmd
  source:             v2.2.7
  source branch:       HEAD
  source commit:      839f4fe7
  source commit at:   2023-10-27 21:10:24 +0800
  surpport model ver.:1.1
  build variant:      cuda
  build with tf inc:  /home/zkm/anaconda3/envs/deepmd/include;/home/zkm/anaconda3/envs/deepmd/include
  build with tf lib:  /home/zkm/anaconda3/envs/deepmd/lib/libtensorflow_cc.so
  set tf intra_op_parallelism_threads: 0
  set tf inter_op_parallelism_threads: 0
  >>> Info of lammps module:
  use deepmd-kit at:  /home/zkm/anaconda3/envs/deepmd  restoring pair style deepmd from restart
  62 atoms
  read_restart CPU = 0.000 seconds
include potential.mod
# NOTE: This script can be modified for different pair styles
# See in.elastic for more info.

# we must undefine any fix ave/* fix before using reset_timestep
if "$(is_defined(fix,avp))" then "unfix avp"
reset_timestep 0

# Choose potential
# pair_style	sw
# pair_coeff * * Si.sw Si

pair_style	deepmd tob9_deepmd_compress.pb
pair_coeff	* * Ca H O Si

atom_modify sort 0 0.0
#kspace_style	ewald 1.0e-6# Setup neighbor style

#neighbor 2.0 bin
neigh_modify once no every 1 delay 0 check yes

# Setup output

fix avp all ave/time  10 10 100 c_thermo_press mode vector

#min_style cg
#minimize 1.0e-15 1.0e-15 10000 10000 #设置能量最小化

thermo		100
thermo_style custom step temp pe press f_avp[1] f_avp[2] f_avp[3] f_avp[4] f_avp[5] f_avp[6]
thermo_modify norm no

# Setup MD

timestep 0.001
fix 4 all nve
fix 5 all langevin 300 300 0.1 123457

# Negative deformation

variable delta equal -0.02*9.54292732499844
variable deltaxy equal -0.02*xy
variable deltaxz equal -0.02*xz
variable deltayz equal -0.02*yz
change_box all z delta 0 -0.190858546499969 remap units box
Changing box ...
  triclinic box = (-0.026421927 0.057501491 -0.084114365) to (11.14139 7.3938541 9.2679544) with tilt (0.18407555 -0.079489538 -1.736548)

# Run MD

run 1000
Generated 0 of 6 mixed pair_coeff terms from geometric mixing rule
Step          Temp          PotEng         Press         f_avp[1]       f_avp[2]       f_avp[3]       f_avp[4]       f_avp[5]       f_avp[6]
0   286.95655     -455.55797      24979.195      0              0              0              0              0              0
Averages over the last 6 of 11 rows, steps 500 to 1000:
Temp PotEng Press f_avp[1] f_avp[2] f_avp[3] f_avp[4] f_avp[5] f_avp[6]
313.43 -455.306 12323.7 8899.63 13396.1 11915.7 -13264 1514.77 -6577.77
Loop time of 6.05012 on 1 procs for 1000 steps with 62 atoms

include potential.mod
# NOTE: This script can be modified for different pair styles
# See in.elastic for more info.

# we must undefine any fix ave/* fix before using reset_timestep
if "$(is_defined(fix,avp))" then "unfix avp"
unfix avp
reset_timestep 0

# Choose potential
# pair_style	sw
# pair_coeff * * Si.sw Si

pair_style	deepmd tob9_deepmd_compress.pb
pair_coeff	* * Ca H O Si

atom_modify sort 0 0.0
#kspace_style	ewald 1.0e-6# Setup neighbor style

#neighbor 2.0 bin
neigh_modify once no every 1 delay 0 check yes

# Setup output

fix avp all ave/time  10 10 100 c_thermo_press mode vector

#min_style cg
#minimize 1.0e-15 1.0e-15 10000 10000 #设置能量最小化

thermo		100
thermo_style custom step temp pe press f_avp[1] f_avp[2] f_avp[3] f_avp[4] f_avp[5] f_avp[6]
thermo_modify norm no

# Setup MD

timestep 0.001
fix 4 all nve
fix 5 all langevin 300 300 0.1 123457

run 300
Generated 0 of 6 mixed pair_coeff terms from geometric mixing rule
Step          Temp          PotEng         Press         f_avp[1]       f_avp[2]       f_avp[3]       f_avp[4]       f_avp[5]       f_avp[6]
0   348.57208     -455.7086       13107.332      0              0              0              0              0              0
Loop time of 1.88511 on 1 procs for 300 steps with 62 atoms

# Obtain new stress tensor

variable pxx1 equal f_avp[1]
variable pyy1 equal f_avp[2]
variable pzz1 equal f_avp[3]
variable pxy1 equal f_avp[4]
variable pxz1 equal f_avp[5]
variable pyz1 equal f_avp[6]

# Compute elastic constant from pressure tensor

variable C1neg equal 39.1491283018404
variable C2neg equal 31.4074742609993
variable C3neg equal 120.23965852801
variable C4neg equal 3.81982891608045
variable C5neg equal 4.93559210007189
variable C6neg equal -0.615225703313508

# Reset box and simulation parameters

clear
Loaded 1 plugins from /home/zkm/anaconda3/envs/deepmd/lib/deepmd_lmp
box tilt large

The 'box' command has been removed and will be ignored

read_restart restart.equil
Reading restart file ...
  restart file = 2 Aug 2023, LAMMPS = 2 Aug 2023
  restoring atom style atomic from restart
  triclinic box = (-0.026421927 0.057501491 -0.084114365) to (11.14139 7.3938541 9.458813) with tilt (0.18407555 -0.079489538 -1.736548)
Summary of lammps deepmd module ...
  >>> Info of deepmd-kit:
  installed to:       /home/zkm/anaconda3/envs/deepmd
  source:             v2.2.7
  source branch:       HEAD
  source commit:      839f4fe7
  source commit at:   2023-10-27 21:10:24 +0800
  surpport model ver.:1.1
  build variant:      cuda
  build with tf inc:  /home/zkm/anaconda3/envs/deepmd/include;/home/zkm/anaconda3/envs/deepmd/include
  build with tf lib:  /home/zkm/anaconda3/envs/deepmd/lib/libtensorflow_cc.so
  set tf intra_op_parallelism_threads: 0
  set tf inter_op_parallelism_threads: 0
  >>> Info of lammps module:
  use deepmd-kit at:  /home/zkm/anaconda3/envs/deepmd  restoring pair style deepmd from restart
  62 atoms
  read_restart CPU = 0.000 seconds
include potential.mod
# NOTE: This script can be modified for different pair styles
# See in.elastic for more info.

# we must undefine any fix ave/* fix before using reset_timestep
if "$(is_defined(fix,avp))" then "unfix avp"
reset_timestep 0

# Choose potential
# pair_style	sw
# pair_coeff * * Si.sw Si

pair_style	deepmd tob9_deepmd_compress.pb
pair_coeff	* * Ca H O Si

atom_modify sort 0 0.0
#kspace_style	ewald 1.0e-6# Setup neighbor style

#neighbor 2.0 bin
neigh_modify once no every 1 delay 0 check yes

# Setup output

fix avp all ave/time  10 10 100 c_thermo_press mode vector

#min_style cg
#minimize 1.0e-15 1.0e-15 10000 10000 #设置能量最小化

thermo		100
thermo_style custom step temp pe press f_avp[1] f_avp[2] f_avp[3] f_avp[4] f_avp[5] f_avp[6]
thermo_modify norm no

# Setup MD

timestep 0.001
fix 4 all nve
fix 5 all langevin 300 300 0.1 123457

# Positive deformation

variable delta equal 0.02*9.54292732499844
variable deltaxy equal 0.02*xy
variable deltaxz equal 0.02*xz
variable deltayz equal 0.02*yz
change_box all z delta 0 0.190858546499969 remap units box
Changing box ...
  triclinic box = (-0.026421927 0.057501491 -0.084114365) to (11.14139 7.3938541 9.6496715) with tilt (0.18407555 -0.079489538 -1.736548)

# Run MD

run 1000
Generated 0 of 6 mixed pair_coeff terms from geometric mixing rule
Step          Temp          PotEng         Press         f_avp[1]       f_avp[2]       f_avp[3]       f_avp[4]       f_avp[5]       f_avp[6]
0   286.95655     -455.22953     -27985.102      0              0              0              0              0              0
Averages over the last 6 of 11 rows, steps 500 to 1000:
Temp PotEng Press f_avp[1] f_avp[2] f_avp[3] f_avp[4] f_avp[5] f_avp[6]
318.923 -454.905 -17400 -6078.88 -298.394 -35327.6 -11981.3 -2947.62 -5426.08
Loop time of 6.50474 on 1 procs for 1000 steps with 62 atoms

include potential.mod
# NOTE: This script can be modified for different pair styles
# See in.elastic for more info.

# we must undefine any fix ave/* fix before using reset_timestep
if "$(is_defined(fix,avp))" then "unfix avp"
unfix avp
reset_timestep 0

# Choose potential
# pair_style	sw
# pair_coeff * * Si.sw Si

pair_style	deepmd tob9_deepmd_compress.pb
pair_coeff	* * Ca H O Si

atom_modify sort 0 0.0
#kspace_style	ewald 1.0e-6# Setup neighbor style

#neighbor 2.0 bin
neigh_modify once no every 1 delay 0 check yes

# Setup output

fix avp all ave/time  10 10 100 c_thermo_press mode vector

#min_style cg
#minimize 1.0e-15 1.0e-15 10000 10000 #设置能量最小化

thermo		100
thermo_style custom step temp pe press f_avp[1] f_avp[2] f_avp[3] f_avp[4] f_avp[5] f_avp[6]
thermo_modify norm no

# Setup MD

timestep 0.001
fix 4 all nve
fix 5 all langevin 300 300 0.1 123457

run 300
Generated 0 of 6 mixed pair_coeff terms from geometric mixing rule
Step          Temp          PotEng         Press         f_avp[1]       f_avp[2]       f_avp[3]       f_avp[4]       f_avp[5]       f_avp[6]
0   346.23753     -455.45044     -14989.276      0              0              0              0              0              0
Loop time of 1.90651 on 1 procs for 300 steps with 62 atoms

# Obtain new stress tensor

variable pxx1 equal f_avp[1]
variable pyy1 equal f_avp[2]
variable pzz1 equal f_avp[3]
variable pxy1 equal f_avp[4]
variable pxz1 equal f_avp[5]
variable pyz1 equal f_avp[6]

# Compute elastic constant from pressure tensor

variable C1pos equal 33.3663325046534
variable C2pos equal 37.3789070417102
variable C3pos equal 106.639057043404
variable C4pos equal 1.42043937450116
variable C5pos equal 14.6752753179651
variable C6pos equal 0.212658832311508

# Combine positive and negative

variable C13 equal 0.5*(39.1491283018404+33.3663325046534)
variable C23 equal 0.5*(31.4074742609993+37.3789070417102)
variable C33 equal 0.5*(120.23965852801+106.639057043404)
variable C43 equal 0.5*(3.81982891608045+1.42043937450116)
variable C53 equal 0.5*(4.93559210007189+14.6752753179651)
variable C63 equal 0.5*(-0.615225703313508+0.212658832311508)

# Delete dir to make sure it is not reused

variable dir delete

# uyz Perturbation

variable dir equal 4
include displace.mod
# NOTE: This script should not need to be
# modified. See in.elastic for more info.
#
# Find which reference length to use

variable len0 equal 9.54292732499844

# Reset box and simulation parameters

clear
Loaded 1 plugins from /home/zkm/anaconda3/envs/deepmd/lib/deepmd_lmp
box tilt large

The 'box' command has been removed and will be ignored

read_restart restart.equil
Reading restart file ...
  restart file = 2 Aug 2023, LAMMPS = 2 Aug 2023
  restoring atom style atomic from restart
  triclinic box = (-0.026421927 0.057501491 -0.084114365) to (11.14139 7.3938541 9.458813) with tilt (0.18407555 -0.079489538 -1.736548)
Summary of lammps deepmd module ...
  >>> Info of deepmd-kit:
  installed to:       /home/zkm/anaconda3/envs/deepmd
  source:             v2.2.7
  source branch:       HEAD
  source commit:      839f4fe7
  source commit at:   2023-10-27 21:10:24 +0800
  surpport model ver.:1.1
  build variant:      cuda
  build with tf inc:  /home/zkm/anaconda3/envs/deepmd/include;/home/zkm/anaconda3/envs/deepmd/include
  build with tf lib:  /home/zkm/anaconda3/envs/deepmd/lib/libtensorflow_cc.so
  set tf intra_op_parallelism_threads: 0
  set tf inter_op_parallelism_threads: 0
  >>> Info of lammps module:
  use deepmd-kit at:  /home/zkm/anaconda3/envs/deepmd  restoring pair style deepmd from restart
  62 atoms
  read_restart CPU = 0.001 seconds
include potential.mod
# NOTE: This script can be modified for different pair styles
# See in.elastic for more info.

# we must undefine any fix ave/* fix before using reset_timestep
if "$(is_defined(fix,avp))" then "unfix avp"
reset_timestep 0

# Choose potential
# pair_style	sw
# pair_coeff * * Si.sw Si

pair_style	deepmd tob9_deepmd_compress.pb
pair_coeff	* * Ca H O Si

atom_modify sort 0 0.0
#kspace_style	ewald 1.0e-6# Setup neighbor style

#neighbor 2.0 bin
neigh_modify once no every 1 delay 0 check yes

# Setup output

fix avp all ave/time  10 10 100 c_thermo_press mode vector

#min_style cg
#minimize 1.0e-15 1.0e-15 10000 10000 #设置能量最小化

thermo		100
thermo_style custom step temp pe press f_avp[1] f_avp[2] f_avp[3] f_avp[4] f_avp[5] f_avp[6]
thermo_modify norm no

# Setup MD

timestep 0.001
fix 4 all nve
fix 5 all langevin 300 300 0.1 123457

# Negative deformation

variable delta equal -0.02*9.54292732499844
variable deltaxy equal -0.02*xy
variable deltaxz equal -0.02*xz
variable deltayz equal -0.02*yz
change_box all yz delta -0.190858546499969 remap units box
Changing box ...
  triclinic box = (-0.026421927 0.057501491 -0.084114365) to (11.14139 7.3938541 9.458813) with tilt (0.18407555 -0.079489538 -1.9274065)

# Run MD

run 1000
Generated 0 of 6 mixed pair_coeff terms from geometric mixing rule
Step          Temp          PotEng         Press         f_avp[1]       f_avp[2]       f_avp[3]       f_avp[4]       f_avp[5]       f_avp[6]
0   286.95655     -455.69143     -3477.0115      0              0              0              0              0              0
Averages over the last 6 of 11 rows, steps 500 to 1000:
Temp PotEng Press f_avp[1] f_avp[2] f_avp[3] f_avp[4] f_avp[5] f_avp[6]
318.263 -455.134 -3935.48 1639.54 6309.43 -14664.6 -12344.4 -851.008 2759.11
Loop time of 6.60509 on 1 procs for 1000 steps with 62 atoms

include potential.mod
# NOTE: This script can be modified for different pair styles
# See in.elastic for more info.

# we must undefine any fix ave/* fix before using reset_timestep
if "$(is_defined(fix,avp))" then "unfix avp"
unfix avp
reset_timestep 0

# Choose potential
# pair_style	sw
# pair_coeff * * Si.sw Si

pair_style	deepmd tob9_deepmd_compress.pb
pair_coeff	* * Ca H O Si

atom_modify sort 0 0.0
#kspace_style	ewald 1.0e-6# Setup neighbor style

#neighbor 2.0 bin
neigh_modify once no every 1 delay 0 check yes

# Setup output

fix avp all ave/time  10 10 100 c_thermo_press mode vector

#min_style cg
#minimize 1.0e-15 1.0e-15 10000 10000 #设置能量最小化

thermo		100
thermo_style custom step temp pe press f_avp[1] f_avp[2] f_avp[3] f_avp[4] f_avp[5] f_avp[6]
thermo_modify norm no

# Setup MD

timestep 0.001
fix 4 all nve
fix 5 all langevin 300 300 0.1 123457

run 300
Generated 0 of 6 mixed pair_coeff terms from geometric mixing rule
Step          Temp          PotEng         Press         f_avp[1]       f_avp[2]       f_avp[3]       f_avp[4]       f_avp[5]       f_avp[6]
0   354.07667     -455.71983     -693.88302      0              0              0              0              0              0
Loop time of 1.76442 on 1 procs for 300 steps with 62 atoms

# Obtain new stress tensor

variable pxx1 equal f_avp[1]
variable pyy1 equal f_avp[2]
variable pzz1 equal f_avp[3]
variable pxy1 equal f_avp[4]
variable pxz1 equal f_avp[5]
variable pyz1 equal f_avp[6]

# Compute elastic constant from pressure tensor

variable C1neg equal 1.6193941529248
variable C2neg equal -1.2487376473422
variable C3neg equal -0.397810011563005
variable C4neg equal 42.6373772023848
variable C5neg equal -3.86238490404457
variable C6neg equal -2.0519939100195

# Reset box and simulation parameters

clear
Loaded 1 plugins from /home/zkm/anaconda3/envs/deepmd/lib/deepmd_lmp
box tilt large

The 'box' command has been removed and will be ignored

read_restart restart.equil
Reading restart file ...
  restart file = 2 Aug 2023, LAMMPS = 2 Aug 2023
  restoring atom style atomic from restart
  triclinic box = (-0.026421927 0.057501491 -0.084114365) to (11.14139 7.3938541 9.458813) with tilt (0.18407555 -0.079489538 -1.736548)
Summary of lammps deepmd module ...
  >>> Info of deepmd-kit:
  installed to:       /home/zkm/anaconda3/envs/deepmd
  source:             v2.2.7
  source branch:       HEAD
  source commit:      839f4fe7
  source commit at:   2023-10-27 21:10:24 +0800
  surpport model ver.:1.1
  build variant:      cuda
  build with tf inc:  /home/zkm/anaconda3/envs/deepmd/include;/home/zkm/anaconda3/envs/deepmd/include
  build with tf lib:  /home/zkm/anaconda3/envs/deepmd/lib/libtensorflow_cc.so
  set tf intra_op_parallelism_threads: 0
  set tf inter_op_parallelism_threads: 0
  >>> Info of lammps module:
  use deepmd-kit at:  /home/zkm/anaconda3/envs/deepmd  restoring pair style deepmd from restart
  62 atoms
  read_restart CPU = 0.000 seconds
include potential.mod
# NOTE: This script can be modified for different pair styles
# See in.elastic for more info.

# we must undefine any fix ave/* fix before using reset_timestep
if "$(is_defined(fix,avp))" then "unfix avp"
reset_timestep 0

# Choose potential
# pair_style	sw
# pair_coeff * * Si.sw Si

pair_style	deepmd tob9_deepmd_compress.pb
pair_coeff	* * Ca H O Si

atom_modify sort 0 0.0
#kspace_style	ewald 1.0e-6# Setup neighbor style

#neighbor 2.0 bin
neigh_modify once no every 1 delay 0 check yes

# Setup output

fix avp all ave/time  10 10 100 c_thermo_press mode vector

#min_style cg
#minimize 1.0e-15 1.0e-15 10000 10000 #设置能量最小化

thermo		100
thermo_style custom step temp pe press f_avp[1] f_avp[2] f_avp[3] f_avp[4] f_avp[5] f_avp[6]
thermo_modify norm no

# Setup MD

timestep 0.001
fix 4 all nve
fix 5 all langevin 300 300 0.1 123457

# Positive deformation

variable delta equal 0.02*9.54292732499844
variable deltaxy equal 0.02*xy
variable deltaxz equal 0.02*xz
variable deltayz equal 0.02*yz
change_box all yz delta 0.190858546499969 remap units box
Changing box ...
  triclinic box = (-0.026421927 0.057501491 -0.084114365) to (11.14139 7.3938541 9.458813) with tilt (0.18407555 -0.079489538 -1.5456894)

# Run MD

run 1000
Generated 0 of 6 mixed pair_coeff terms from geometric mixing rule
Step          Temp          PotEng         Press         f_avp[1]       f_avp[2]       f_avp[3]       f_avp[4]       f_avp[5]       f_avp[6]
0   286.95655     -455.42768     -3168.7348      0              0              0              0              0              0
Averages over the last 6 of 11 rows, steps 500 to 1000:
Temp PotEng Press f_avp[1] f_avp[2] f_avp[3] f_avp[4] f_avp[5] f_avp[6]
321.709 -455.056 -3543.69 1883.32 5383.86 -13025.5 -12659.6 -297.621 -14514.2
Loop time of 5.82743 on 1 procs for 1000 steps with 62 atoms

include potential.mod
# NOTE: This script can be modified for different pair styles
# See in.elastic for more info.

# we must undefine any fix ave/* fix before using reset_timestep
if "$(is_defined(fix,avp))" then "unfix avp"
unfix avp
reset_timestep 0

# Choose potential
# pair_style	sw
# pair_coeff * * Si.sw Si

pair_style	deepmd tob9_deepmd_compress.pb
pair_coeff	* * Ca H O Si

atom_modify sort 0 0.0
#kspace_style	ewald 1.0e-6# Setup neighbor style

#neighbor 2.0 bin
neigh_modify once no every 1 delay 0 check yes

# Setup output

fix avp all ave/time  10 10 100 c_thermo_press mode vector

#min_style cg
#minimize 1.0e-15 1.0e-15 10000 10000 #设置能量最小化

thermo		100
thermo_style custom step temp pe press f_avp[1] f_avp[2] f_avp[3] f_avp[4] f_avp[5] f_avp[6]
thermo_modify norm no

# Setup MD

timestep 0.001
fix 4 all nve
fix 5 all langevin 300 300 0.1 123457

run 300
Generated 0 of 6 mixed pair_coeff terms from geometric mixing rule
Step          Temp          PotEng         Press         f_avp[1]       f_avp[2]       f_avp[3]       f_avp[4]       f_avp[5]       f_avp[6]
0   360.76873     -455.53245     -2452.1493      0              0              0              0              0              0
Loop time of 1.73972 on 1 procs for 300 steps with 62 atoms

# Obtain new stress tensor

variable pxx1 equal f_avp[1]
variable pyy1 equal f_avp[2]
variable pzz1 equal f_avp[3]
variable pxy1 equal f_avp[4]
variable pxz1 equal f_avp[5]
variable pyz1 equal f_avp[6]

# Compute elastic constant from pressure tensor

variable C1pos equal -4.5491247286407
variable C2pos equal 8.11205381788394
variable C3pos equal -2.0627887182585
variable C4pos equal 42.315956023033
variable C5pos equal 3.0068847625933
variable C6pos equal -0.634348324368493

# Combine positive and negative

variable C14 equal 0.5*(1.6193941529248+-4.5491247286407)
variable C24 equal 0.5*(-1.2487376473422+8.11205381788394)
variable C34 equal 0.5*(-0.397810011563005+-2.0627887182585)
variable C44 equal 0.5*(42.6373772023848+42.315956023033)
variable C54 equal 0.5*(-3.86238490404457+3.0068847625933)
variable C64 equal 0.5*(-2.0519939100195+-0.634348324368493)

# Delete dir to make sure it is not reused

variable dir delete

# uxz Perturbation

variable dir equal 5
include displace.mod
# NOTE: This script should not need to be
# modified. See in.elastic for more info.
#
# Find which reference length to use

variable len0 equal 9.54292732499844

# Reset box and simulation parameters

clear
Loaded 1 plugins from /home/zkm/anaconda3/envs/deepmd/lib/deepmd_lmp
box tilt large

The 'box' command has been removed and will be ignored

read_restart restart.equil
Reading restart file ...
  restart file = 2 Aug 2023, LAMMPS = 2 Aug 2023
  restoring atom style atomic from restart
  triclinic box = (-0.026421927 0.057501491 -0.084114365) to (11.14139 7.3938541 9.458813) with tilt (0.18407555 -0.079489538 -1.736548)
Summary of lammps deepmd module ...
  >>> Info of deepmd-kit:
  installed to:       /home/zkm/anaconda3/envs/deepmd
  source:             v2.2.7
  source branch:       HEAD
  source commit:      839f4fe7
  source commit at:   2023-10-27 21:10:24 +0800
  surpport model ver.:1.1
  build variant:      cuda
  build with tf inc:  /home/zkm/anaconda3/envs/deepmd/include;/home/zkm/anaconda3/envs/deepmd/include
  build with tf lib:  /home/zkm/anaconda3/envs/deepmd/lib/libtensorflow_cc.so
  set tf intra_op_parallelism_threads: 0
  set tf inter_op_parallelism_threads: 0
  >>> Info of lammps module:
  use deepmd-kit at:  /home/zkm/anaconda3/envs/deepmd  restoring pair style deepmd from restart
  62 atoms
  read_restart CPU = 0.001 seconds
include potential.mod
# NOTE: This script can be modified for different pair styles
# See in.elastic for more info.

# we must undefine any fix ave/* fix before using reset_timestep
if "$(is_defined(fix,avp))" then "unfix avp"
reset_timestep 0

# Choose potential
# pair_style	sw
# pair_coeff * * Si.sw Si

pair_style	deepmd tob9_deepmd_compress.pb
pair_coeff	* * Ca H O Si

atom_modify sort 0 0.0
#kspace_style	ewald 1.0e-6# Setup neighbor style

#neighbor 2.0 bin
neigh_modify once no every 1 delay 0 check yes

# Setup output

fix avp all ave/time  10 10 100 c_thermo_press mode vector

#min_style cg
#minimize 1.0e-15 1.0e-15 10000 10000 #设置能量最小化

thermo		100
thermo_style custom step temp pe press f_avp[1] f_avp[2] f_avp[3] f_avp[4] f_avp[5] f_avp[6]
thermo_modify norm no

# Setup MD

timestep 0.001
fix 4 all nve
fix 5 all langevin 300 300 0.1 123457

# Negative deformation

variable delta equal -0.02*9.54292732499844
variable deltaxy equal -0.02*xy
variable deltaxz equal -0.02*xz
variable deltayz equal -0.02*yz
change_box all xz delta -0.190858546499969 remap units box
Changing box ...
  triclinic box = (-0.026421927 0.057501491 -0.084114365) to (11.14139 7.3938541 9.458813) with tilt (0.18407555 -0.27034808 -1.736548)

# Run MD

run 1000
Generated 0 of 6 mixed pair_coeff terms from geometric mixing rule
Step          Temp          PotEng         Press         f_avp[1]       f_avp[2]       f_avp[3]       f_avp[4]       f_avp[5]       f_avp[6]
0   286.95655     -455.5532      -882.00594      0              0              0              0              0              0
Averages over the last 6 of 11 rows, steps 500 to 1000:
Temp PotEng Press f_avp[1] f_avp[2] f_avp[3] f_avp[4] f_avp[5] f_avp[6]
330.317 -455.16 -3250.79 1580.11 5817.58 -12018 -12388 6045.1 -6016.26
Loop time of 5.73262 on 1 procs for 1000 steps with 62 atoms

include potential.mod
# NOTE: This script can be modified for different pair styles
# See in.elastic for more info.

# we must undefine any fix ave/* fix before using reset_timestep
if "$(is_defined(fix,avp))" then "unfix avp"
unfix avp
reset_timestep 0

# Choose potential
# pair_style	sw
# pair_coeff * * Si.sw Si

pair_style	deepmd tob9_deepmd_compress.pb
pair_coeff	* * Ca H O Si

atom_modify sort 0 0.0
#kspace_style	ewald 1.0e-6# Setup neighbor style

#neighbor 2.0 bin
neigh_modify once no every 1 delay 0 check yes

# Setup output

fix avp all ave/time  10 10 100 c_thermo_press mode vector

#min_style cg
#minimize 1.0e-15 1.0e-15 10000 10000 #设置能量最小化

thermo		100
thermo_style custom step temp pe press f_avp[1] f_avp[2] f_avp[3] f_avp[4] f_avp[5] f_avp[6]
thermo_modify norm no

# Setup MD

timestep 0.001
fix 4 all nve
fix 5 all langevin 300 300 0.1 123457

run 300
Generated 0 of 6 mixed pair_coeff terms from geometric mixing rule
Step          Temp          PotEng         Press         f_avp[1]       f_avp[2]       f_avp[3]       f_avp[4]       f_avp[5]       f_avp[6]
0   369.40592     -455.68001     -740.88484      0              0              0              0              0              0
Loop time of 1.72642 on 1 procs for 300 steps with 62 atoms

# Obtain new stress tensor

variable pxx1 equal f_avp[1]
variable pyy1 equal f_avp[2]
variable pzz1 equal f_avp[3]
variable pxy1 equal f_avp[4]
variable pxz1 equal f_avp[5]
variable pyz1 equal f_avp[6]

# Compute elastic constant from pressure tensor

variable C1neg equal 1.6928499743718
variable C2neg equal -11.7995151948948
variable C3neg equal 8.35718459369949
variable C4neg equal -0.394628797038904
variable C5neg equal 28.3746123549888
variable C6neg equal -1.21812392094001

# Reset box and simulation parameters

clear
Loaded 1 plugins from /home/zkm/anaconda3/envs/deepmd/lib/deepmd_lmp
box tilt large

The 'box' command has been removed and will be ignored

read_restart restart.equil
Reading restart file ...
  restart file = 2 Aug 2023, LAMMPS = 2 Aug 2023
  restoring atom style atomic from restart
  triclinic box = (-0.026421927 0.057501491 -0.084114365) to (11.14139 7.3938541 9.458813) with tilt (0.18407555 -0.079489538 -1.736548)
Summary of lammps deepmd module ...
  >>> Info of deepmd-kit:
  installed to:       /home/zkm/anaconda3/envs/deepmd
  source:             v2.2.7
  source branch:       HEAD
  source commit:      839f4fe7
  source commit at:   2023-10-27 21:10:24 +0800
  surpport model ver.:1.1
  build variant:      cuda
  build with tf inc:  /home/zkm/anaconda3/envs/deepmd/include;/home/zkm/anaconda3/envs/deepmd/include
  build with tf lib:  /home/zkm/anaconda3/envs/deepmd/lib/libtensorflow_cc.so
  set tf intra_op_parallelism_threads: 0
  set tf inter_op_parallelism_threads: 0
  >>> Info of lammps module:
  use deepmd-kit at:  /home/zkm/anaconda3/envs/deepmd  restoring pair style deepmd from restart
  62 atoms
  read_restart CPU = 0.000 seconds
include potential.mod
# NOTE: This script can be modified for different pair styles
# See in.elastic for more info.

# we must undefine any fix ave/* fix before using reset_timestep
if "$(is_defined(fix,avp))" then "unfix avp"
reset_timestep 0

# Choose potential
# pair_style	sw
# pair_coeff * * Si.sw Si

pair_style	deepmd tob9_deepmd_compress.pb
pair_coeff	* * Ca H O Si

atom_modify sort 0 0.0
#kspace_style	ewald 1.0e-6# Setup neighbor style

#neighbor 2.0 bin
neigh_modify once no every 1 delay 0 check yes

# Setup output

fix avp all ave/time  10 10 100 c_thermo_press mode vector

#min_style cg
#minimize 1.0e-15 1.0e-15 10000 10000 #设置能量最小化

thermo		100
thermo_style custom step temp pe press f_avp[1] f_avp[2] f_avp[3] f_avp[4] f_avp[5] f_avp[6]
thermo_modify norm no

# Setup MD

timestep 0.001
fix 4 all nve
fix 5 all langevin 300 300 0.1 123457

# Positive deformation

variable delta equal 0.02*9.54292732499844
variable deltaxy equal 0.02*xy
variable deltaxz equal 0.02*xz
variable deltayz equal 0.02*yz
change_box all xz delta 0.190858546499969 remap units box
Changing box ...
  triclinic box = (-0.026421927 0.057501491 -0.084114365) to (11.14139 7.3938541 9.458813) with tilt (0.18407555 0.11136901 -1.736548)

# Run MD

run 1000
Generated 0 of 6 mixed pair_coeff terms from geometric mixing rule
Step          Temp          PotEng         Press         f_avp[1]       f_avp[2]       f_avp[3]       f_avp[4]       f_avp[5]       f_avp[6]
0   286.95655     -455.51373     -5351.5607      0              0              0              0              0              0
Averages over the last 6 of 11 rows, steps 500 to 1000:
Temp PotEng Press f_avp[1] f_avp[2] f_avp[3] f_avp[4] f_avp[5] f_avp[6]
318.01 -455.142 -4821.14 668.405 6795.29 -16030.9 -12485 -7376.84 -5752.12
Loop time of 6.07458 on 1 procs for 1000 steps with 62 atoms

include potential.mod
# NOTE: This script can be modified for different pair styles
# See in.elastic for more info.

# we must undefine any fix ave/* fix before using reset_timestep
if "$(is_defined(fix,avp))" then "unfix avp"
unfix avp
reset_timestep 0

# Choose potential
# pair_style	sw
# pair_coeff * * Si.sw Si

pair_style	deepmd tob9_deepmd_compress.pb
pair_coeff	* * Ca H O Si

atom_modify sort 0 0.0
#kspace_style	ewald 1.0e-6# Setup neighbor style

#neighbor 2.0 bin
neigh_modify once no every 1 delay 0 check yes

# Setup output

fix avp all ave/time  10 10 100 c_thermo_press mode vector

#min_style cg
#minimize 1.0e-15 1.0e-15 10000 10000 #设置能量最小化

thermo		100
thermo_style custom step temp pe press f_avp[1] f_avp[2] f_avp[3] f_avp[4] f_avp[5] f_avp[6]
thermo_modify norm no

# Setup MD

timestep 0.001
fix 4 all nve
fix 5 all langevin 300 300 0.1 123457

run 300
Generated 0 of 6 mixed pair_coeff terms from geometric mixing rule
Step          Temp          PotEng         Press         f_avp[1]       f_avp[2]       f_avp[3]       f_avp[4]       f_avp[5]       f_avp[6]
0   357.20627     -455.73411     -3127.7595      0              0              0              0              0              0
Loop time of 1.81007 on 1 procs for 300 steps with 62 atoms

# Obtain new stress tensor

variable pxx1 equal f_avp[1]
variable pyy1 equal f_avp[2]
variable pzz1 equal f_avp[3]
variable pxy1 equal f_avp[4]
variable pxz1 equal f_avp[5]
variable pyz1 equal f_avp[6]

# Compute elastic constant from pressure tensor

variable C1pos equal 2.4025765162178
variable C2pos equal -2.6577411199561
variable C3pos equal 11.551142906564
variable C4pos equal -0.964695164098793
variable C5pos equal 37.2933667583966
variable C6pos equal -0.277642596327496

# Combine positive and negative

variable C15 equal 0.5*(1.6928499743718+2.4025765162178)
variable C25 equal 0.5*(-11.7995151948948+-2.6577411199561)
variable C35 equal 0.5*(8.35718459369949+11.551142906564)
variable C45 equal 0.5*(-0.394628797038904+-0.964695164098793)
variable C55 equal 0.5*(28.3746123549888+37.2933667583966)
variable C65 equal 0.5*(-1.21812392094001+-0.277642596327496)

# Delete dir to make sure it is not reused

variable dir delete

# uxy Perturbation

variable dir equal 6
include displace.mod
# NOTE: This script should not need to be
# modified. See in.elastic for more info.
#
# Find which reference length to use

variable len0 equal 7.33635257958294

# Reset box and simulation parameters

clear
Loaded 1 plugins from /home/zkm/anaconda3/envs/deepmd/lib/deepmd_lmp
box tilt large

The 'box' command has been removed and will be ignored

read_restart restart.equil
Reading restart file ...
  restart file = 2 Aug 2023, LAMMPS = 2 Aug 2023
  restoring atom style atomic from restart
  triclinic box = (-0.026421927 0.057501491 -0.084114365) to (11.14139 7.3938541 9.458813) with tilt (0.18407555 -0.079489538 -1.736548)
Summary of lammps deepmd module ...
  >>> Info of deepmd-kit:
  installed to:       /home/zkm/anaconda3/envs/deepmd
  source:             v2.2.7
  source branch:       HEAD
  source commit:      839f4fe7
  source commit at:   2023-10-27 21:10:24 +0800
  surpport model ver.:1.1
  build variant:      cuda
  build with tf inc:  /home/zkm/anaconda3/envs/deepmd/include;/home/zkm/anaconda3/envs/deepmd/include
  build with tf lib:  /home/zkm/anaconda3/envs/deepmd/lib/libtensorflow_cc.so
  set tf intra_op_parallelism_threads: 0
  set tf inter_op_parallelism_threads: 0
  >>> Info of lammps module:
  use deepmd-kit at:  /home/zkm/anaconda3/envs/deepmd  restoring pair style deepmd from restart
  62 atoms
  read_restart CPU = 0.001 seconds
include potential.mod
# NOTE: This script can be modified for different pair styles
# See in.elastic for more info.

# we must undefine any fix ave/* fix before using reset_timestep
if "$(is_defined(fix,avp))" then "unfix avp"
reset_timestep 0

# Choose potential
# pair_style	sw
# pair_coeff * * Si.sw Si

pair_style	deepmd tob9_deepmd_compress.pb
pair_coeff	* * Ca H O Si

atom_modify sort 0 0.0
#kspace_style	ewald 1.0e-6# Setup neighbor style

#neighbor 2.0 bin
neigh_modify once no every 1 delay 0 check yes

# Setup output

fix avp all ave/time  10 10 100 c_thermo_press mode vector

#min_style cg
#minimize 1.0e-15 1.0e-15 10000 10000 #设置能量最小化

thermo		100
thermo_style custom step temp pe press f_avp[1] f_avp[2] f_avp[3] f_avp[4] f_avp[5] f_avp[6]
thermo_modify norm no

# Setup MD

timestep 0.001
fix 4 all nve
fix 5 all langevin 300 300 0.1 123457

# Negative deformation

variable delta equal -0.02*7.33635257958294
variable deltaxy equal -0.02*xy
variable deltaxz equal -0.02*xz
variable deltayz equal -0.02*yz
change_box all xy delta -0.146727051591659 remap units box
Changing box ...
  triclinic box = (-0.026421927 0.057501491 -0.084114365) to (11.14139 7.3938541 9.458813) with tilt (0.037348495 -0.079489538 -1.736548)

# Run MD

run 1000
Generated 0 of 6 mixed pair_coeff terms from geometric mixing rule
Step          Temp          PotEng         Press         f_avp[1]       f_avp[2]       f_avp[3]       f_avp[4]       f_avp[5]       f_avp[6]
0   286.95655     -455.58657     -2797.4392      0              0              0              0              0              0
Averages over the last 6 of 11 rows, steps 500 to 1000:
Temp PotEng Press f_avp[1] f_avp[2] f_avp[3] f_avp[4] f_avp[5] f_avp[6]
320.147 -455.254 -4178.7 1264.57 5090.15 -13795.6 -2433.24 640.661 -5851.45
Loop time of 5.82598 on 1 procs for 1000 steps with 62 atoms

include potential.mod
# NOTE: This script can be modified for different pair styles
# See in.elastic for more info.

# we must undefine any fix ave/* fix before using reset_timestep
if "$(is_defined(fix,avp))" then "unfix avp"
unfix avp
reset_timestep 0

# Choose potential
# pair_style	sw
# pair_coeff * * Si.sw Si

pair_style	deepmd tob9_deepmd_compress.pb
pair_coeff	* * Ca H O Si

atom_modify sort 0 0.0
#kspace_style	ewald 1.0e-6# Setup neighbor style

#neighbor 2.0 bin
neigh_modify once no every 1 delay 0 check yes

# Setup output

fix avp all ave/time  10 10 100 c_thermo_press mode vector

#min_style cg
#minimize 1.0e-15 1.0e-15 10000 10000 #设置能量最小化

thermo		100
thermo_style custom step temp pe press f_avp[1] f_avp[2] f_avp[3] f_avp[4] f_avp[5] f_avp[6]
thermo_modify norm no

# Setup MD

timestep 0.001
fix 4 all nve
fix 5 all langevin 300 300 0.1 123457

run 300
Generated 0 of 6 mixed pair_coeff terms from geometric mixing rule
Step          Temp          PotEng         Press         f_avp[1]       f_avp[2]       f_avp[3]       f_avp[4]       f_avp[5]       f_avp[6]
0   359.72268     -455.8446      -1106.8331      0              0              0              0              0              0
Loop time of 1.73692 on 1 procs for 300 steps with 62 atoms

# Obtain new stress tensor

variable pxx1 equal f_avp[1]
variable pyy1 equal f_avp[2]
variable pzz1 equal f_avp[3]
variable pxy1 equal f_avp[4]
variable pxz1 equal f_avp[5]
variable pyz1 equal f_avp[6]

# Compute elastic constant from pressure tensor

variable C1neg equal 6.95644393993249
variable C2neg equal -4.42445490454629
variable C3neg equal 1.23642915028599
variable C4neg equal -0.5299057101788
variable C5neg equal 3.73429258292004
variable C6neg equal 47.1226716612305

# Reset box and simulation parameters

clear
Loaded 1 plugins from /home/zkm/anaconda3/envs/deepmd/lib/deepmd_lmp
box tilt large

The 'box' command has been removed and will be ignored

read_restart restart.equil
Reading restart file ...
  restart file = 2 Aug 2023, LAMMPS = 2 Aug 2023
  restoring atom style atomic from restart
  triclinic box = (-0.026421927 0.057501491 -0.084114365) to (11.14139 7.3938541 9.458813) with tilt (0.18407555 -0.079489538 -1.736548)
Summary of lammps deepmd module ...
  >>> Info of deepmd-kit:
  installed to:       /home/zkm/anaconda3/envs/deepmd
  source:             v2.2.7
  source branch:       HEAD
  source commit:      839f4fe7
  source commit at:   2023-10-27 21:10:24 +0800
  surpport model ver.:1.1
  build variant:      cuda
  build with tf inc:  /home/zkm/anaconda3/envs/deepmd/include;/home/zkm/anaconda3/envs/deepmd/include
  build with tf lib:  /home/zkm/anaconda3/envs/deepmd/lib/libtensorflow_cc.so
  set tf intra_op_parallelism_threads: 0
  set tf inter_op_parallelism_threads: 0
  >>> Info of lammps module:
  use deepmd-kit at:  /home/zkm/anaconda3/envs/deepmd  restoring pair style deepmd from restart
  62 atoms
  read_restart CPU = 0.001 seconds
include potential.mod
# NOTE: This script can be modified for different pair styles
# See in.elastic for more info.

# we must undefine any fix ave/* fix before using reset_timestep
if "$(is_defined(fix,avp))" then "unfix avp"
reset_timestep 0

# Choose potential
# pair_style	sw
# pair_coeff * * Si.sw Si

pair_style	deepmd tob9_deepmd_compress.pb
pair_coeff	* * Ca H O Si

atom_modify sort 0 0.0
#kspace_style	ewald 1.0e-6# Setup neighbor style

#neighbor 2.0 bin
neigh_modify once no every 1 delay 0 check yes

# Setup output

fix avp all ave/time  10 10 100 c_thermo_press mode vector

#min_style cg
#minimize 1.0e-15 1.0e-15 10000 10000 #设置能量最小化

thermo		100
thermo_style custom step temp pe press f_avp[1] f_avp[2] f_avp[3] f_avp[4] f_avp[5] f_avp[6]
thermo_modify norm no

# Setup MD

timestep 0.001
fix 4 all nve
fix 5 all langevin 300 300 0.1 123457

# Positive deformation

variable delta equal 0.02*7.33635257958294
variable deltaxy equal 0.02*xy
variable deltaxz equal 0.02*xz
variable deltayz equal 0.02*yz
change_box all xy delta 0.146727051591659 remap units box
Changing box ...
  triclinic box = (-0.026421927 0.057501491 -0.084114365) to (11.14139 7.3938541 9.458813) with tilt (0.3308026 -0.079489538 -1.736548)

# Run MD

run 1000
Generated 0 of 6 mixed pair_coeff terms from geometric mixing rule
Step          Temp          PotEng         Press         f_avp[1]       f_avp[2]       f_avp[3]       f_avp[4]       f_avp[5]       f_avp[6]
0   286.95655     -455.51647     -3585.9138      0              0              0              0              0              0
Averages over the last 6 of 11 rows, steps 500 to 1000:
Temp PotEng Press f_avp[1] f_avp[2] f_avp[3] f_avp[4] f_avp[5] f_avp[6]
321.586 -454.999 -3009.66 1979.4 7650.41 -14059 -22268.2 -1924.4 -6064.56
Loop time of 5.79513 on 1 procs for 1000 steps with 62 atoms

include potential.mod
# NOTE: This script can be modified for different pair styles
# See in.elastic for more info.

# we must undefine any fix ave/* fix before using reset_timestep
if "$(is_defined(fix,avp))" then "unfix avp"
unfix avp
reset_timestep 0

# Choose potential
# pair_style	sw
# pair_coeff * * Si.sw Si

pair_style	deepmd tob9_deepmd_compress.pb
pair_coeff	* * Ca H O Si

atom_modify sort 0 0.0
#kspace_style	ewald 1.0e-6# Setup neighbor style

#neighbor 2.0 bin
neigh_modify once no every 1 delay 0 check yes

# Setup output

fix avp all ave/time  10 10 100 c_thermo_press mode vector

#min_style cg
#minimize 1.0e-15 1.0e-15 10000 10000 #设置能量最小化

thermo		100
thermo_style custom step temp pe press f_avp[1] f_avp[2] f_avp[3] f_avp[4] f_avp[5] f_avp[6]
thermo_modify norm no

# Setup MD

timestep 0.001
fix 4 all nve
fix 5 all langevin 300 300 0.1 123457

run 300
Generated 0 of 6 mixed pair_coeff terms from geometric mixing rule
Step          Temp          PotEng         Press         f_avp[1]       f_avp[2]       f_avp[3]       f_avp[4]       f_avp[5]       f_avp[6]
0   358.13347     -455.48916     -2559.217       0              0              0              0              0              0
Loop time of 1.73311 on 1 procs for 300 steps with 62 atoms

# Obtain new stress tensor

variable pxx1 equal f_avp[1]
variable pyy1 equal f_avp[2]
variable pzz1 equal f_avp[3]
variable pxy1 equal f_avp[4]
variable pxz1 equal f_avp[5]
variable pyz1 equal f_avp[6]

# Compute elastic constant from pressure tensor

variable C1pos equal 2.6932327006137
variable C2pos equal 2.1170579033575
variable C3pos equal 3.2498769657405
variable C4pos equal -1.92032838857105
variable C5pos equal 9.78947661219676
variable C6pos equal 48.3686361478554

# Combine positive and negative

variable C16 equal 0.5*(6.95644393993249+2.6932327006137)
variable C26 equal 0.5*(-4.42445490454629+2.1170579033575)
variable C36 equal 0.5*(1.23642915028599+3.2498769657405)
variable C46 equal 0.5*(-0.5299057101788+-1.92032838857105)
variable C56 equal 0.5*(3.73429258292004+9.78947661219676)
variable C66 equal 0.5*(47.1226716612305+48.3686361478554)

# Delete dir to make sure it is not reused

variable dir delete

# Output final values

variable C11all equal 151.684382039516
variable C22all equal 149.086523986471
variable C33all equal 113.439357785707

variable C12all equal 0.5*(51.671965085592+51.1799518445771)
variable C13all equal 0.5*(36.2577304032469+35.3071346744806)
variable C23all equal 0.5*(34.3931906513548+31.6089292478665)

variable C44all equal 42.4766666127089
variable C55all equal 32.8339895566927
variable C66all equal 47.7456539045429

variable C14all equal 0.5*(-1.46486528785795+-5.04485026884923)
variable C15all equal 0.5*(2.0477132452948+0.304083249808195)
variable C16all equal 0.5*(4.82483832027309+-0.10812106569375)

variable C24all equal 0.5*(3.43165808527087+-2.84635361742165)
variable C25all equal 0.5*(-7.22862815742545+-3.54814897463099)
variable C26all equal 0.5*(-1.1536985005944+-1.0872298685685)

variable C34all equal 0.5*(-1.23029936491075+2.6201341452908)
variable C35all equal 0.5*(9.95416375013174+9.80543370901849)
variable C36all equal 0.5*(2.24315305801325+-0.201283435501)

variable C45all equal 0.5*(-0.679661980568849+-0.427750070725635)
variable C46all equal 0.5*(-1.22511704937493+-1.343171117194)
variable C56all equal 0.5*(6.7618845975584+-0.747883258633753)

print "========================================="
=========================================
print "Components of the Elastic Constant Tensor"
Components of the Elastic Constant Tensor
print "========================================="
=========================================

Elastic Constant C11all = 151.684382039516 GPa
Elastic Constant C22all = 149.086523986471 GPa
Elastic Constant C33all = 113.439357785707 GPa

Elastic Constant C12all = 51.4259584650845 GPa
Elastic Constant C13all = 35.7824325388638 GPa
Elastic Constant C23all = 33.0010599496106 GPa

Elastic Constant C44all = 42.4766666127089 GPa
Elastic Constant C55all = 32.8339895566927 GPa
Elastic Constant C66all = 47.7456539045429 GPa

Elastic Constant C14all = -3.25485777835359 GPa
Elastic Constant C15all = 1.1758982475515 GPa
Elastic Constant C16all = 2.35835862728967 GPa

Elastic Constant C24all = 0.29265223392461 GPa
Elastic Constant C25all = -5.38838856602822 GPa
Elastic Constant C26all = -1.12046418458145 GPa

Elastic Constant C34all = 0.694917390190025 GPa
Elastic Constant C35all = 9.87979872957511 GPa
Elastic Constant C36all = 1.02093481125613 GPa

Elastic Constant C45all = -0.553706025647242 GPa
Elastic Constant C46all = -1.28414408328447 GPa
Elastic Constant C56all = 3.00700066946232 GPa

print " "

print "Cij tensor matrix"
Cij tensor matrix
print " "

write_restart restart2
System init for write_restart ...
Generated 0 of 6 mixed pair_coeff terms from geometric mixing rule
