LAMMPS (29 Sep 2021 - Update 2)

units	metal
atom_style atomic
boundary    p p p
newton off
#neighbor 1.0 bin
neigh_modify delay 0 every 1 check yes
#neigh_modify once no every 1 delay 0 check yes

box tilt large
read_data tob9_ref_deepmd.data
Reading data file ...
  triclinic box = (0.0000000 0.0000000 0.0000000) to (11.114968 7.4513556 9.3746986) with tilt (-0.17419075 -0.15353827 -1.9248620)
  reading atoms ...
  62 atoms

pair_style	nequip
pair_coeff	* * tob9_l3-deployed.pth Ca H O Si
mass            1 40.079800
mass            4 28.08500
mass            3 15.9994
mass            2 1.00794

#kspace_style    ewald 1.0e-6

velocity all create 300 4928459 rot yes dist gaussian #温度初始化
timestep 0.001

thermo 100
thermo_style  custom step temp press etotal lx ly lz xy xz yz pxx pyy pzz

min_style cg
minimize 1.0e-15 1.0e-15 100000 100000
  update every 1 steps, delay 0 steps, check yes
Step Temp Press TotEng Lx Ly Lz Xy Xz Yz Pxx Pyy Pzz
0          300    23229.616   -448.74962    11.114968    7.4513556    9.3746986  -0.17419075  -0.15353827    -1.924862      28912.6    14649.484    26126.765
Loop time of 20.5298 on 1 procs for 45 steps with 62 atoms

Minimization stats:
  Stopping criterion = energy tolerance
  Energy initial, next-to-last, final =
  Force two-norm initial, final = 21.368531 0.047639776
  Force max component initial, final = 7.2417879 0.010323424
  Final line search alpha, max atom move = 1.0000000 0.010323424
  Iterations, force evaluations = 45 89

fix 4 all nve
fix 5 all langevin 300.0 300.0 0.1 12345

run 5000
Step Temp Press TotEng Lx Ly Lz Xy Xz Yz Pxx Pyy Pzz
45          300    3879.6929   -454.09706    11.114968    7.4513556    9.3746986  -0.17419075  -0.15353827    -1.924862    11364.796   -7265.1915    7539.4737
Averages over the last 26 of 52 rows, steps 2600 to 5045:
Temp Press TotEng Lx Ly Lz Xy Xz Yz Pxx Pyy Pzz
308.394 6391.99 -451.557 11.115 7.45136 9.3747 -0.174191 -0.153538 -1.92486 20873 -12729.6 11032.6
Loop time of 771.95 on 1 procs for 5000 steps with 62 atoms

unfix 4
unfix 5

#fix 1 all npt temp 300.0 300.0 10.0 iso 0.0 0.0 1000.0
#fix 1 all box/relax tri 0.0 vmax 1.0
fix 1 all npt temp 300 300 0.1 aniso 1.01325 1.01325 1.0

run 10000
Step Temp Press TotEng Lx Ly Lz Xy Xz Yz Pxx Pyy Pzz
5045     355.9447   -2174.8143   -451.26081    11.114968    7.4513556    9.3746986  -0.17419075  -0.15353827    -1.924862    14645.323   -18715.616   -2454.1501
Averages over the last 51 of 102 rows, steps 10100 to 15045:
Temp Press TotEng Lx Ly Lz Xy Xz Yz Pxx Pyy Pzz
295.026 -637.278 -451.835 11.3032 7.34483 9.50075 -0.171701 -0.155603 -1.95074 322.802 -977.656 -1256.98
Loop time of 1528.87 on 1 procs for 10000 steps with 62 atoms

write_dump all custom output-tob9_nequip.dump id type x y z fx fy fz
