LAMMPS (2 Aug 2023 - Update 1)
Loaded 1 plugins from /home/zkm/anaconda3/envs/deepmd/lib/deepmd_lmp
# Compute elastic constant tensor for a crystal at finite temperature
#
# WARNING: This script attempts to measure small differences in
# statistical averages generated by finite temperature MD simulations.
# This creates many more opportunities for errors to occur, compared
# to the zero temperature version provided in examples/ELASTIC.
# Hence, it is always a good idea to start with the zero temperature
# calculation, before attempting to use this script.
#
# Written by Aidan Thompson (Sandia, athomps@sandia.gov)
#
#  This script uses the following three include files.
#
#   init.mod      (must be modified for different crystal structures)
# 	       	  Define units, MD parameters, deformation parameters,
#		  and initial configuration of the atoms and simulation cell.
#
#
#   potential.mod    (must be modified for different pair styles)
# 		     Define pair style and other attributes
#		     not stored in restart file
#
#
#   displace.mod    (displace.mod should not need to be modified)
# 		    Perform positive and negative box displacements
# 		    It uses the resultant changes
#		    in stress to compute one
# 		    row of the elastic stiffness tensor
#
#		    Inputs variables:
#		    	   dir = the Voigt deformation component
#		    		    (1,2,3,4,5,6)
#		    Global constants:
#       	    	   up = the deformation magnitude (strain units)
#       		   cfac = conversion from LAMMPS pressure units to
#               	   output units for elastic constants
#
#
#  To run this on a different system, it should only be necessary to
#  modify the files init.mod and potential.mod. In order to calculate
#  the elastic constants correctly, care must be taken to specify
#  the correct units in init.mod (units, cfac and cunits). It is also
#  important to verify that the MD sampling of stress components
#  is generating accurate statistical averages.
#  One indication of this is that the elastic constants are insensitive
#  check for finite size effects.
#

# include init.mod

# NOTE: This script can be modified for different atomic structures,
# units, etc. See in.elastic for more info.
#

# Define the finite deformation size. Try several values of this
# variable to verify that results do not depend on it.
variable up equal 2.0e-2

# real units, elastic constants in GPa
units		metal
atom_style atomic
variable cfac equal 1.0e-4
variable cunits string GPa

# Define MD parameters
variable nevery equal 10                  # sampling interval
variable nrepeat equal 10                 # number of samples
variable nfreq equal 10*10
variable nthermo equal 100
variable nequil equal 10*100
variable nrun equal 3*100
variable temp equal 300                   # temperature of initial sample
variable timestep equal 0.001             # timestep
variable adiabatic equal 2                # adiabatic (1) or isothermal (2)
variable tdamp equal 0.01                 # time constant for thermostat
variable seed equal 123457                # seed for thermostat

# generate the box and atom positions using a diamond lattice
variable a equal 5.431

boundary	p p p

box tilt large

The 'box' command has been removed and will be ignored

read_data tob11_ref_deepmd.data
Reading data file ...
  triclinic box = (0 0 0) to (6.8037 6.184815 22.405446) with tilt (2.6646871 0.29402869 -0.26981789)
  reading atoms ...
  88 atoms

pair_style	deepmd tob11_deepmd_compress.pb
Summary of lammps deepmd module ...
  >>> Info of deepmd-kit:
  installed to:       /home/zkm/anaconda3/envs/deepmd
  source:             v2.2.7
  source branch:       HEAD
  source commit:      839f4fe7
  source commit at:   2023-10-27 21:10:24 +0800
  surpport model ver.:1.1
  build variant:      cuda
  build with tf inc:  /home/zkm/anaconda3/envs/deepmd/include;/home/zkm/anaconda3/envs/deepmd/include
  build with tf lib:  /home/zkm/anaconda3/envs/deepmd/lib/libtensorflow_cc.so
  set tf intra_op_parallelism_threads: 0
  set tf inter_op_parallelism_threads: 0
  >>> Info of lammps module:
  use deepmd-kit at:  /home/zkm/anaconda3/envs/deepmdpair_coeff	* * Ca H O Si
mass            1 40.079800
mass            4 28.08500
mass            3 15.9994
mass            2 1.00794

change_box all triclinic
Changing box ...
  triclinic box = (0 0 0) to (6.8037 6.184815 22.405446) with tilt (2.6646871 0.29402869 -0.26981789)

velocity	all create 300 87287

thermo 100
min_style cg
minimize 1.0e-15 1.0e-15 100000 100000 #设置能量最小化

CITE-CITE-CITE-CITE-CITE-CITE-CITE-CITE-CITE-CITE-CITE-CITE-CITE

Your simulation uses code contributions which should be cited:

- USER-DEEPMD package:

@article{Wang_ComputPhysCommun_2018_v228_p178,
  author = {Wang, Han and Zhang, Linfeng and Han, Jiequn and E, Weinan},
  doi = {10.1016/j.cpc.2018.03.016},
  url = {https://doi.org/10.1016/j.cpc.2018.03.016},
  year = 2018,
  month = {jul},
  publisher = {Elsevier {BV}},
  volume = 228,
  journal = {Comput. Phys. Commun.},
  title = {{DeePMD-kit: A deep learning package for many-body potential energy representation and molecular dynamics}},
  pages = {178--184}
}
@misc{Zeng_JChemPhys_2023_v159_p054801,
  title  = {{DeePMD-kit v2: A software package for deep potential models}},
  author =   {Jinzhe Zeng and Duo Zhang and Denghui Lu and Pinghui Mo and Zeyu Li
         and Yixiao Chen and Mari{\'a}n Rynik and Li'ang Huang and Ziyao Li and
         Shaochen Shi and Yingze Wang and Haotian Ye and Ping Tuo and Jiabin
         Yang and Ye Ding and Yifan Li and Davide Tisi and Qiyu Zeng and Han
         Bao and Yu Xia and Jiameng Huang and Koki Muraoka and Yibo Wang and
         Junhan Chang and Fengbo Yuan and Sigbj{\o}rn L{\o}land Bore and Chun
         Cai and Yinnian Lin and Bo Wang and Jiayan Xu and Jia-Xin Zhu and
         Chenxing Luo and Yuzhi Zhang and Rhys E A Goodall and Wenshuo Liang
         and Anurag Kumar Singh and Sikai Yao and Jingchao Zhang and Renata
         Wentzcovitch and Jiequn Han and Jie Liu and Weile Jia and Darrin M
         York and Weinan E and Roberto Car and Linfeng Zhang and Han Wang},
  journal =  {J. Chem. Phys.},
  volume =   159,
  issue =    5,
  year =    2023,
  pages  =   054801,
  doi =      {10.1063/5.0155600},
}

CITE-CITE-CITE-CITE-CITE-CITE-CITE-CITE-CITE-CITE-CITE-CITE-CITE

Generated 0 of 6 mixed pair_coeff terms from geometric mixing rule
Step          Temp          E_pair         E_mol          TotEng         Press
0   300           -571.5139       0             -568.14021      31362.457
Loop time of 36.3379 on 1 procs for 524 steps with 88 atoms

Minimization stats:
  Stopping criterion = energy tolerance
  Energy initial, next-to-last, final =
  Force two-norm initial, final = 16.3926 7.276553e-06
  Force max component initial, final = 3.8216525 2.0922301e-06
  Final line search alpha, max atom move = 1 2.0922301e-06
  Iterations, force evaluations = 524 1048

thermo_style  custom step temp press etotal lx ly lz xy yz xz pxx pyy pzz

#fix 456 all nve
#fix 567 all langevin 300.0 300.0 0.1 12345

#run 5000

#unfix 456
#unfix 567
fix 123 all npt temp 300 300 1 tri 1.0 1.0 1
run 10000
Generated 0 of 6 mixed pair_coeff terms from geometric mixing rule
Step          Temp          Press          TotEng           Lx             Ly             Lz             Xy             Yz             Xz            Pxx            Pyy            Pzz
524   300            29904.855     -575.35453      6.8037         6.184815       22.405446      2.6646871     -0.26981789     0.29402869     16739.66       28581.876      44393.03
Averages over the last 51 of 102 rows, steps 5600 to 10524:
Temp Press TotEng Lx Ly Lz Xy Yz Xz Pxx Pyy Pzz
299.595 364.26 -572.339 6.86969 6.24671 22.9795 2.77346 0.189718 -0.297056 605.049 444.771 42.959
Loop time of 285.821 on 1 procs for 10000 steps with 88 atoms

unfix 123

# Compute initial state

variable thermostat equal 0
include potential.mod
# NOTE: This script can be modified for different pair styles
# See in.elastic for more info.

# we must undefine any fix ave/* fix before using reset_timestep
if "$(is_defined(fix,avp))" then "unfix avp"
reset_timestep 0

# Choose potential
# pair_style	sw
# pair_coeff * * Si.sw Si

pair_style	deepmd tob11_deepmd_compress.pb
pair_coeff	* * Ca H O Si

atom_modify sort 0 0.0
#kspace_style	ewald 1.0e-6# Setup neighbor style

#neighbor 2.0 bin
neigh_modify once no every 1 delay 0 check yes

# Setup output

fix avp all ave/time  10 10 100 c_thermo_press mode vector

#min_style cg
#minimize 1.0e-15 1.0e-15 10000 10000 #设置能量最小化

thermo		100
thermo_style custom step temp pe press f_avp[1] f_avp[2] f_avp[3] f_avp[4] f_avp[5] f_avp[6]
thermo_modify norm no

# Setup MD

timestep 0.001
fix 4 all nve

run 1000
Generated 0 of 6 mixed pair_coeff terms from geometric mixing rule
Step          Temp          PotEng         Press         f_avp[1]       f_avp[2]       f_avp[3]       f_avp[4]       f_avp[5]       f_avp[6]
0   264.91632     -575.5357       3174.2864      0              0              0              0              0              0
Averages over the last 6 of 11 rows, steps 500 to 1000:
Temp PotEng Press f_avp[1] f_avp[2] f_avp[3] f_avp[4] f_avp[5] f_avp[6]
289.869 -575.82 -2060.14 -3827.07 -3738.75 -456.923 -1246.97 4022.3 -3255.83
Loop time of 34.714 on 1 procs for 1000 steps with 88 atoms

variable thermostat equal 1

print 1
1

include potential.mod
# NOTE: This script can be modified for different pair styles
# See in.elastic for more info.

# we must undefine any fix ave/* fix before using reset_timestep
if "$(is_defined(fix,avp))" then "unfix avp"
unfix avp
reset_timestep 0

# Choose potential
# pair_style	sw
# pair_coeff * * Si.sw Si

pair_style	deepmd tob11_deepmd_compress.pb
pair_coeff	* * Ca H O Si

atom_modify sort 0 0.0
#kspace_style	ewald 1.0e-6# Setup neighbor style

#neighbor 2.0 bin
neigh_modify once no every 1 delay 0 check yes

# Setup output

fix avp all ave/time  10 10 100 c_thermo_press mode vector

#min_style cg
#minimize 1.0e-15 1.0e-15 10000 10000 #设置能量最小化

thermo		100
thermo_style custom step temp pe press f_avp[1] f_avp[2] f_avp[3] f_avp[4] f_avp[5] f_avp[6]
thermo_modify norm no

# Setup MD

timestep 0.001
fix 4 all nve
fix 5 all langevin 300 300 0.01 123457

run 300
Generated 0 of 6 mixed pair_coeff terms from geometric mixing rule
Step          Temp          PotEng         Press         f_avp[1]       f_avp[2]       f_avp[3]       f_avp[4]       f_avp[5]       f_avp[6]
0   258.70606     -575.46761     -7086.302       0              0              0              0              0              0
Loop time of 10.3202 on 1 procs for 300 steps with 88 atoms

variable pxx0 equal f_avp[1]
variable pyy0 equal f_avp[2]
variable pzz0 equal f_avp[3]
variable pxy0 equal f_avp[4]
variable pxz0 equal f_avp[5]
variable pyz0 equal f_avp[6]

variable tmp equal lx
variable lx0 equal 6.91317914458083
variable tmp equal ly
variable ly0 equal 6.27641021482539
variable tmp equal lz
variable lz0 equal 22.8805741059216

# These formulas define the derivatives w.r.t. strain components
# Constants uses $, variables use v_
variable d1 equal -(v_pxx1--8111.56285717325)/(v_delta/v_len0)*0.0001
variable d2 equal -(v_pyy1--16273.5621757631)/(v_delta/v_len0)*0.0001
variable d3 equal -(v_pzz1--1186.5540415525)/(v_delta/v_len0)*0.0001
variable d4 equal -(v_pyz1--3601.37777941917)/(v_delta/v_len0)*0.0001
variable d5 equal -(v_pxz1-975.907959074996)/(v_delta/v_len0)*0.0001
variable d6 equal -(v_pxy1--1479.80675371283)/(v_delta/v_len0)*0.0001

# Write restart
write_restart restart.equil
System init for write_restart ...
Generated 0 of 6 mixed pair_coeff terms from geometric mixing rule

# uxx Perturbation

variable dir equal 1
include displace.mod
# NOTE: This script should not need to be
# modified. See in.elastic for more info.
#
# Find which reference length to use

variable len0 equal 6.91317914458083

# Reset box and simulation parameters

clear
Loaded 1 plugins from /home/zkm/anaconda3/envs/deepmd/lib/deepmd_lmp
box tilt large

The 'box' command has been removed and will be ignored

read_restart restart.equil
Reading restart file ...
  restart file = 2 Aug 2023, LAMMPS = 2 Aug 2023
  restoring atom style atomic from restart
  triclinic box = (-0.054739572 -0.04579762 -0.23756387) to (6.8584396 6.2306126 22.64301) with tilt (2.8369773 -0.88657934 0.26423941)
Summary of lammps deepmd module ...
  >>> Info of deepmd-kit:
  installed to:       /home/zkm/anaconda3/envs/deepmd
  source:             v2.2.7
  source branch:       HEAD
  source commit:      839f4fe7
  source commit at:   2023-10-27 21:10:24 +0800
  surpport model ver.:1.1
  build variant:      cuda
  build with tf inc:  /home/zkm/anaconda3/envs/deepmd/include;/home/zkm/anaconda3/envs/deepmd/include
  build with tf lib:  /home/zkm/anaconda3/envs/deepmd/lib/libtensorflow_cc.so
  set tf intra_op_parallelism_threads: 0
  set tf inter_op_parallelism_threads: 0
  >>> Info of lammps module:
  use deepmd-kit at:  /home/zkm/anaconda3/envs/deepmd  restoring pair style deepmd from restart
  88 atoms
  read_restart CPU = 0.001 seconds
include potential.mod
# NOTE: This script can be modified for different pair styles
# See in.elastic for more info.

# we must undefine any fix ave/* fix before using reset_timestep
if "$(is_defined(fix,avp))" then "unfix avp"
reset_timestep 0

# Choose potential
# pair_style	sw
# pair_coeff * * Si.sw Si

pair_style	deepmd tob11_deepmd_compress.pb
pair_coeff	* * Ca H O Si

atom_modify sort 0 0.0
#kspace_style	ewald 1.0e-6# Setup neighbor style

#neighbor 2.0 bin
neigh_modify once no every 1 delay 0 check yes

# Setup output

fix avp all ave/time  10 10 100 c_thermo_press mode vector

#min_style cg
#minimize 1.0e-15 1.0e-15 10000 10000 #设置能量最小化

thermo		100
thermo_style custom step temp pe press f_avp[1] f_avp[2] f_avp[3] f_avp[4] f_avp[5] f_avp[6]
thermo_modify norm no

# Setup MD

timestep 0.001
fix 4 all nve
fix 5 all langevin 300 300 0.01 123457

# Negative deformation

variable delta equal -0.02*6.91317914458083
variable deltaxy equal -0.02*xy
variable deltaxz equal -0.02*xz
variable deltayz equal -0.02*yz
change_box all x delta 0 -0.138263582891617 xy delta -0.0567395465990963 xz delta 0.0177315868896114 remap units box
Changing box ...
  triclinic box = (-0.054739572 -0.04579762 -0.23756387) to (6.720176 6.2306126 22.64301) with tilt (2.8369773 -0.88657934 0.26423941)
  triclinic box = (-0.054739572 -0.04579762 -0.23756387) to (6.720176 6.2306126 22.64301) with tilt (2.7802378 -0.88657934 0.26423941)
  triclinic box = (-0.054739572 -0.04579762 -0.23756387) to (6.720176 6.2306126 22.64301) with tilt (2.7802378 -0.86884776 0.26423941)

# Run MD

run 1000
Generated 0 of 6 mixed pair_coeff terms from geometric mixing rule
Step          Temp          PotEng         Press         f_avp[1]       f_avp[2]       f_avp[3]       f_avp[4]       f_avp[5]       f_avp[6]
0   270.95964     -575.23017      26012.986      0              0              0              0              0              0
Averages over the last 6 of 11 rows, steps 500 to 1000:
Temp PotEng Press f_avp[1] f_avp[2] f_avp[3] f_avp[4] f_avp[5] f_avp[6]
302.441 -575.466 8915.74 12438.1 2722.57 9073.21 -1605.32 3852.14 -346.426
Loop time of 34.3512 on 1 procs for 1000 steps with 88 atoms

include potential.mod
# NOTE: This script can be modified for different pair styles
# See in.elastic for more info.

# we must undefine any fix ave/* fix before using reset_timestep
if "$(is_defined(fix,avp))" then "unfix avp"
unfix avp
reset_timestep 0

# Choose potential
# pair_style	sw
# pair_coeff * * Si.sw Si

pair_style	deepmd tob11_deepmd_compress.pb
pair_coeff	* * Ca H O Si

atom_modify sort 0 0.0
#kspace_style	ewald 1.0e-6# Setup neighbor style

#neighbor 2.0 bin
neigh_modify once no every 1 delay 0 check yes

# Setup output

fix avp all ave/time  10 10 100 c_thermo_press mode vector

#min_style cg
#minimize 1.0e-15 1.0e-15 10000 10000 #设置能量最小化

thermo		100
thermo_style custom step temp pe press f_avp[1] f_avp[2] f_avp[3] f_avp[4] f_avp[5] f_avp[6]
thermo_modify norm no

# Setup MD

timestep 0.001
fix 4 all nve
fix 5 all langevin 300 300 0.01 123457

run 300
Generated 0 of 6 mixed pair_coeff terms from geometric mixing rule
Step          Temp          PotEng         Press         f_avp[1]       f_avp[2]       f_avp[3]       f_avp[4]       f_avp[5]       f_avp[6]
0   351.45972     -575.81735      14156.171      0              0              0              0              0              0
Loop time of 5.58707 on 1 procs for 300 steps with 88 atoms

# Obtain new stress tensor

variable pxx1 equal f_avp[1]
variable pyy1 equal f_avp[2]
variable pzz1 equal f_avp[3]
variable pxy1 equal f_avp[4]
variable pxz1 equal f_avp[5]
variable pyz1 equal f_avp[6]

# Compute elastic constant from pressure tensor

variable C1neg equal 97.027371276953
variable C2neg equal 67.4213727789288
variable C3neg equal 86.0689543145773
variable C4neg equal 1.40138249125335
variable C5neg equal 6.817502964503
variable C6neg equal -3.61601289368289

# Reset box and simulation parameters

clear
Loaded 1 plugins from /home/zkm/anaconda3/envs/deepmd/lib/deepmd_lmp
box tilt large

The 'box' command has been removed and will be ignored

read_restart restart.equil
Reading restart file ...
  restart file = 2 Aug 2023, LAMMPS = 2 Aug 2023
  restoring atom style atomic from restart
  triclinic box = (-0.054739572 -0.04579762 -0.23756387) to (6.8584396 6.2306126 22.64301) with tilt (2.8369773 -0.88657934 0.26423941)
Summary of lammps deepmd module ...
  >>> Info of deepmd-kit:
  installed to:       /home/zkm/anaconda3/envs/deepmd
  source:             v2.2.7
  source branch:       HEAD
  source commit:      839f4fe7
  source commit at:   2023-10-27 21:10:24 +0800
  surpport model ver.:1.1
  build variant:      cuda
  build with tf inc:  /home/zkm/anaconda3/envs/deepmd/include;/home/zkm/anaconda3/envs/deepmd/include
  build with tf lib:  /home/zkm/anaconda3/envs/deepmd/lib/libtensorflow_cc.so
  set tf intra_op_parallelism_threads: 0
  set tf inter_op_parallelism_threads: 0
  >>> Info of lammps module:
  use deepmd-kit at:  /home/zkm/anaconda3/envs/deepmd  restoring pair style deepmd from restart
  88 atoms
  read_restart CPU = 0.001 seconds
include potential.mod
# NOTE: This script can be modified for different pair styles
# See in.elastic for more info.

# we must undefine any fix ave/* fix before using reset_timestep
if "$(is_defined(fix,avp))" then "unfix avp"
reset_timestep 0

# Choose potential
# pair_style	sw
# pair_coeff * * Si.sw Si

pair_style	deepmd tob11_deepmd_compress.pb
pair_coeff	* * Ca H O Si

atom_modify sort 0 0.0
#kspace_style	ewald 1.0e-6# Setup neighbor style

#neighbor 2.0 bin
neigh_modify once no every 1 delay 0 check yes

# Setup output

fix avp all ave/time  10 10 100 c_thermo_press mode vector

#min_style cg
#minimize 1.0e-15 1.0e-15 10000 10000 #设置能量最小化

thermo		100
thermo_style custom step temp pe press f_avp[1] f_avp[2] f_avp[3] f_avp[4] f_avp[5] f_avp[6]
thermo_modify norm no

# Setup MD

timestep 0.001
fix 4 all nve
fix 5 all langevin 300 300 0.01 123457

# Positive deformation

variable delta equal 0.02*6.91317914458083
variable deltaxy equal 0.02*xy
variable deltaxz equal 0.02*xz
variable deltayz equal 0.02*yz
change_box all x delta 0 0.138263582891617 xy delta 0.0567395465990963 xz delta -0.0177315868896114 remap units box
Changing box ...
  triclinic box = (-0.054739572 -0.04579762 -0.23756387) to (6.9967032 6.2306126 22.64301) with tilt (2.8369773 -0.88657934 0.26423941)
  triclinic box = (-0.054739572 -0.04579762 -0.23756387) to (6.9967032 6.2306126 22.64301) with tilt (2.8937169 -0.88657934 0.26423941)
  triclinic box = (-0.054739572 -0.04579762 -0.23756387) to (6.9967032 6.2306126 22.64301) with tilt (2.8937169 -0.90431093 0.26423941)

# Run MD

run 1000
Generated 0 of 6 mixed pair_coeff terms from geometric mixing rule
Step          Temp          PotEng         Press         f_avp[1]       f_avp[2]       f_avp[3]       f_avp[4]       f_avp[5]       f_avp[6]
0   270.95964     -575.04533     -27616.652      0              0              0              0              0              0
Averages over the last 6 of 11 rows, steps 500 to 1000:
Temp PotEng Press f_avp[1] f_avp[2] f_avp[3] f_avp[4] f_avp[5] f_avp[6]
304.808 -575.183 -11778.1 -20303.1 -12446.5 -6200.41 2728.84 4085 -1257
Loop time of 33.6877 on 1 procs for 1000 steps with 88 atoms

include potential.mod
# NOTE: This script can be modified for different pair styles
# See in.elastic for more info.

# we must undefine any fix ave/* fix before using reset_timestep
if "$(is_defined(fix,avp))" then "unfix avp"
unfix avp
reset_timestep 0

# Choose potential
# pair_style	sw
# pair_coeff * * Si.sw Si

pair_style	deepmd tob11_deepmd_compress.pb
pair_coeff	* * Ca H O Si

atom_modify sort 0 0.0
#kspace_style	ewald 1.0e-6# Setup neighbor style

#neighbor 2.0 bin
neigh_modify once no every 1 delay 0 check yes

# Setup output

fix avp all ave/time  10 10 100 c_thermo_press mode vector

#min_style cg
#minimize 1.0e-15 1.0e-15 10000 10000 #设置能量最小化

thermo		100
thermo_style custom step temp pe press f_avp[1] f_avp[2] f_avp[3] f_avp[4] f_avp[5] f_avp[6]
thermo_modify norm no

# Setup MD

timestep 0.001
fix 4 all nve
fix 5 all langevin 300 300 0.01 123457

run 300
Generated 0 of 6 mixed pair_coeff terms from geometric mixing rule
Step          Temp          PotEng         Press         f_avp[1]       f_avp[2]       f_avp[3]       f_avp[4]       f_avp[5]       f_avp[6]
0   363.83333     -575.55112     -8038.7431      0              0              0              0              0              0
Loop time of 10.4732 on 1 procs for 300 steps with 88 atoms

# Obtain new stress tensor

variable pxx1 equal f_avp[1]
variable pyy1 equal f_avp[2]
variable pzz1 equal f_avp[3]
variable pxy1 equal f_avp[4]
variable pxz1 equal f_avp[5]
variable pyz1 equal f_avp[6]

# Compute elastic constant from pressure tensor

variable C1pos equal 98.1636302188355
variable C2pos equal 32.8480558977339
variable C3pos equal 19.256772336307
variable C4pos equal 8.26216757237587
variable C5pos equal -8.69866786319745
variable C6pos equal -17.8362290686128

# Combine positive and negative

variable C11 equal 0.5*(97.027371276953+98.1636302188355)
variable C21 equal 0.5*(67.4213727789288+32.8480558977339)
variable C31 equal 0.5*(86.0689543145773+19.256772336307)
variable C41 equal 0.5*(1.40138249125335+8.26216757237587)
variable C51 equal 0.5*(6.817502964503+-8.69866786319745)
variable C61 equal 0.5*(-3.61601289368289+-17.8362290686128)

# Delete dir to make sure it is not reused

variable dir delete

# uyy Perturbation

variable dir equal 2
include displace.mod
# NOTE: This script should not need to be
# modified. See in.elastic for more info.
#
# Find which reference length to use

variable len0 equal 6.27641021482539

# Reset box and simulation parameters

clear
Loaded 1 plugins from /home/zkm/anaconda3/envs/deepmd/lib/deepmd_lmp
box tilt large

The 'box' command has been removed and will be ignored

read_restart restart.equil
Reading restart file ...
  restart file = 2 Aug 2023, LAMMPS = 2 Aug 2023
  restoring atom style atomic from restart
  triclinic box = (-0.054739572 -0.04579762 -0.23756387) to (6.8584396 6.2306126 22.64301) with tilt (2.8369773 -0.88657934 0.26423941)
Summary of lammps deepmd module ...
  >>> Info of deepmd-kit:
  installed to:       /home/zkm/anaconda3/envs/deepmd
  source:             v2.2.7
  source branch:       HEAD
  source commit:      839f4fe7
  source commit at:   2023-10-27 21:10:24 +0800
  surpport model ver.:1.1
  build variant:      cuda
  build with tf inc:  /home/zkm/anaconda3/envs/deepmd/include;/home/zkm/anaconda3/envs/deepmd/include
  build with tf lib:  /home/zkm/anaconda3/envs/deepmd/lib/libtensorflow_cc.so
  set tf intra_op_parallelism_threads: 0
  set tf inter_op_parallelism_threads: 0
  >>> Info of lammps module:
  use deepmd-kit at:  /home/zkm/anaconda3/envs/deepmd  restoring pair style deepmd from restart
  88 atoms
  read_restart CPU = 0.000 seconds
include potential.mod
# NOTE: This script can be modified for different pair styles
# See in.elastic for more info.

# we must undefine any fix ave/* fix before using reset_timestep
if "$(is_defined(fix,avp))" then "unfix avp"
reset_timestep 0

# Choose potential
# pair_style	sw
# pair_coeff * * Si.sw Si

pair_style	deepmd tob11_deepmd_compress.pb
pair_coeff	* * Ca H O Si

atom_modify sort 0 0.0
#kspace_style	ewald 1.0e-6# Setup neighbor style

#neighbor 2.0 bin
neigh_modify once no every 1 delay 0 check yes

# Setup output

fix avp all ave/time  10 10 100 c_thermo_press mode vector

#min_style cg
#minimize 1.0e-15 1.0e-15 10000 10000 #设置能量最小化

thermo		100
thermo_style custom step temp pe press f_avp[1] f_avp[2] f_avp[3] f_avp[4] f_avp[5] f_avp[6]
thermo_modify norm no

# Setup MD

timestep 0.001
fix 4 all nve
fix 5 all langevin 300 300 0.01 123457

# Negative deformation

variable delta equal -0.02*6.27641021482539
variable deltaxy equal -0.02*xy
variable deltaxz equal -0.02*xz
variable deltayz equal -0.02*yz
change_box all y delta 0 -0.125528204296508 yz delta -0.00528478818683225 remap units box
Changing box ...
  triclinic box = (-0.054739572 -0.04579762 -0.23756387) to (6.8584396 6.1050844 22.64301) with tilt (2.8369773 -0.88657934 0.26423941)
  triclinic box = (-0.054739572 -0.04579762 -0.23756387) to (6.8584396 6.1050844 22.64301) with tilt (2.8369773 -0.88657934 0.25895462)

# Run MD

run 1000
Generated 0 of 6 mixed pair_coeff terms from geometric mixing rule
Step          Temp          PotEng         Press         f_avp[1]       f_avp[2]       f_avp[3]       f_avp[4]       f_avp[5]       f_avp[6]
0   270.95964     -575.27434      25296.47       0              0              0              0              0              0
Averages over the last 6 of 11 rows, steps 500 to 1000:
Temp PotEng Press f_avp[1] f_avp[2] f_avp[3] f_avp[4] f_avp[5] f_avp[6]
304.305 -575.5 11710.7 2583.04 19605.4 9925.15 -2440.58 3795.39 -387.575
Loop time of 7.77056 on 1 procs for 1000 steps with 88 atoms

include potential.mod
# NOTE: This script can be modified for different pair styles
# See in.elastic for more info.

# we must undefine any fix ave/* fix before using reset_timestep
if "$(is_defined(fix,avp))" then "unfix avp"
unfix avp
reset_timestep 0

# Choose potential
# pair_style	sw
# pair_coeff * * Si.sw Si

pair_style	deepmd tob11_deepmd_compress.pb
pair_coeff	* * Ca H O Si

atom_modify sort 0 0.0
#kspace_style	ewald 1.0e-6# Setup neighbor style

#neighbor 2.0 bin
neigh_modify once no every 1 delay 0 check yes

# Setup output

fix avp all ave/time  10 10 100 c_thermo_press mode vector

#min_style cg
#minimize 1.0e-15 1.0e-15 10000 10000 #设置能量最小化

thermo		100
thermo_style custom step temp pe press f_avp[1] f_avp[2] f_avp[3] f_avp[4] f_avp[5] f_avp[6]
thermo_modify norm no

# Setup MD

timestep 0.001
fix 4 all nve
fix 5 all langevin 300 300 0.01 123457

run 300
Generated 0 of 6 mixed pair_coeff terms from geometric mixing rule
Step          Temp          PotEng         Press         f_avp[1]       f_avp[2]       f_avp[3]       f_avp[4]       f_avp[5]       f_avp[6]
0   355.76704     -575.8407       15281.433      0              0              0              0              0              0
Loop time of 9.7648 on 1 procs for 300 steps with 88 atoms

# Obtain new stress tensor

variable pxx1 equal f_avp[1]
variable pyy1 equal f_avp[2]
variable pzz1 equal f_avp[3]
variable pxy1 equal f_avp[4]
variable pxz1 equal f_avp[5]
variable pyz1 equal f_avp[6]

# Compute elastic constant from pressure tensor

variable C1neg equal 35.4269562720337
variable C2neg equal 127.40352288481
variable C3neg equal 63.5706538987759
variable C4neg equal -2.2936705914303
variable C5neg equal 5.40288321506381
variable C6neg equal -9.55543169436354

# Reset box and simulation parameters

clear
Loaded 1 plugins from /home/zkm/anaconda3/envs/deepmd/lib/deepmd_lmp
box tilt large

The 'box' command has been removed and will be ignored

read_restart restart.equil
Reading restart file ...
  restart file = 2 Aug 2023, LAMMPS = 2 Aug 2023
  restoring atom style atomic from restart
  triclinic box = (-0.054739572 -0.04579762 -0.23756387) to (6.8584396 6.2306126 22.64301) with tilt (2.8369773 -0.88657934 0.26423941)
Summary of lammps deepmd module ...
  >>> Info of deepmd-kit:
  installed to:       /home/zkm/anaconda3/envs/deepmd
  source:             v2.2.7
  source branch:       HEAD
  source commit:      839f4fe7
  source commit at:   2023-10-27 21:10:24 +0800
  surpport model ver.:1.1
  build variant:      cuda
  build with tf inc:  /home/zkm/anaconda3/envs/deepmd/include;/home/zkm/anaconda3/envs/deepmd/include
  build with tf lib:  /home/zkm/anaconda3/envs/deepmd/lib/libtensorflow_cc.so
  set tf intra_op_parallelism_threads: 0
  set tf inter_op_parallelism_threads: 0
  >>> Info of lammps module:
  use deepmd-kit at:  /home/zkm/anaconda3/envs/deepmd  restoring pair style deepmd from restart
  88 atoms
  read_restart CPU = 0.000 seconds
include potential.mod
# NOTE: This script can be modified for different pair styles
# See in.elastic for more info.

# we must undefine any fix ave/* fix before using reset_timestep
if "$(is_defined(fix,avp))" then "unfix avp"
reset_timestep 0

# Choose potential
# pair_style	sw
# pair_coeff * * Si.sw Si

pair_style	deepmd tob11_deepmd_compress.pb
pair_coeff	* * Ca H O Si

atom_modify sort 0 0.0
#kspace_style	ewald 1.0e-6# Setup neighbor style

#neighbor 2.0 bin
neigh_modify once no every 1 delay 0 check yes

# Setup output

fix avp all ave/time  10 10 100 c_thermo_press mode vector

#min_style cg
#minimize 1.0e-15 1.0e-15 10000 10000 #设置能量最小化

thermo		100
thermo_style custom step temp pe press f_avp[1] f_avp[2] f_avp[3] f_avp[4] f_avp[5] f_avp[6]
thermo_modify norm no

# Setup MD

timestep 0.001
fix 4 all nve
fix 5 all langevin 300 300 0.01 123457

# Positive deformation

variable delta equal 0.02*6.27641021482539
variable deltaxy equal 0.02*xy
variable deltaxz equal 0.02*xz
variable deltayz equal 0.02*yz
change_box all y delta 0 0.125528204296508 yz delta 0.00528478818683225 remap units box
Changing box ...
  triclinic box = (-0.054739572 -0.04579762 -0.23756387) to (6.8584396 6.3561408 22.64301) with tilt (2.8369773 -0.88657934 0.26423941)
  triclinic box = (-0.054739572 -0.04579762 -0.23756387) to (6.8584396 6.3561408 22.64301) with tilt (2.8369773 -0.88657934 0.2695242)

# Run MD

run 1000
Generated 0 of 6 mixed pair_coeff terms from geometric mixing rule
Step          Temp          PotEng         Press         f_avp[1]       f_avp[2]       f_avp[3]       f_avp[4]       f_avp[5]       f_avp[6]
0   270.95964     -575.04395     -27108.436      0              0              0              0              0              0
Averages over the last 6 of 11 rows, steps 500 to 1000:
Temp PotEng Press f_avp[1] f_avp[2] f_avp[3] f_avp[4] f_avp[5] f_avp[6]
302.852 -575.266 -15041.6 -12424.6 -26497.8 -8411.92 4450.44 4883.19 -1565.59
Loop time of 32.4011 on 1 procs for 1000 steps with 88 atoms

include potential.mod
# NOTE: This script can be modified for different pair styles
# See in.elastic for more info.

# we must undefine any fix ave/* fix before using reset_timestep
if "$(is_defined(fix,avp))" then "unfix avp"
unfix avp
reset_timestep 0

# Choose potential
# pair_style	sw
# pair_coeff * * Si.sw Si

pair_style	deepmd tob11_deepmd_compress.pb
pair_coeff	* * Ca H O Si

atom_modify sort 0 0.0
#kspace_style	ewald 1.0e-6# Setup neighbor style

#neighbor 2.0 bin
neigh_modify once no every 1 delay 0 check yes

# Setup output

fix avp all ave/time  10 10 100 c_thermo_press mode vector

#min_style cg
#minimize 1.0e-15 1.0e-15 10000 10000 #设置能量最小化

thermo		100
thermo_style custom step temp pe press f_avp[1] f_avp[2] f_avp[3] f_avp[4] f_avp[5] f_avp[6]
thermo_modify norm no

# Setup MD

timestep 0.001
fix 4 all nve
fix 5 all langevin 300 300 0.01 123457

run 300
Generated 0 of 6 mixed pair_coeff terms from geometric mixing rule
Step          Temp          PotEng         Press         f_avp[1]       f_avp[2]       f_avp[3]       f_avp[4]       f_avp[5]       f_avp[6]
0   354.52568     -575.55215     -11060.875      0              0              0              0              0              0
Loop time of 10.3146 on 1 procs for 300 steps with 88 atoms

# Obtain new stress tensor

variable pxx1 equal f_avp[1]
variable pyy1 equal f_avp[2]
variable pzz1 equal f_avp[3]
variable pxy1 equal f_avp[4]
variable pxz1 equal f_avp[5]
variable pyz1 equal f_avp[6]

# Compute elastic constant from pressure tensor

variable C1pos equal 31.9927403839277
variable C2pos equal 87.4040285843114
variable C3pos equal -1.28589389519669
variable C4pos equal 5.52596622202389
variable C5pos equal -6.78475957328081
variable C6pos equal -26.8699381662272

# Combine positive and negative

variable C12 equal 0.5*(35.4269562720337+31.9927403839277)
variable C22 equal 0.5*(127.40352288481+87.4040285843114)
variable C32 equal 0.5*(63.5706538987759+-1.28589389519669)
variable C42 equal 0.5*(-2.2936705914303+5.52596622202389)
variable C52 equal 0.5*(5.40288321506381+-6.78475957328081)
variable C62 equal 0.5*(-9.55543169436354+-26.8699381662272)

# Delete dir to make sure it is not reused

variable dir delete

# uzz Perturbation

variable dir equal 3
include displace.mod
# NOTE: This script should not need to be
# modified. See in.elastic for more info.
#
# Find which reference length to use

variable len0 equal 22.8805741059216

# Reset box and simulation parameters

clear
Loaded 1 plugins from /home/zkm/anaconda3/envs/deepmd/lib/deepmd_lmp
box tilt large

The 'box' command has been removed and will be ignored

read_restart restart.equil
Reading restart file ...
  restart file = 2 Aug 2023, LAMMPS = 2 Aug 2023
  restoring atom style atomic from restart
  triclinic box = (-0.054739572 -0.04579762 -0.23756387) to (6.8584396 6.2306126 22.64301) with tilt (2.8369773 -0.88657934 0.26423941)
Summary of lammps deepmd module ...
  >>> Info of deepmd-kit:
  installed to:       /home/zkm/anaconda3/envs/deepmd
  source:             v2.2.7
  source branch:       HEAD
  source commit:      839f4fe7
  source commit at:   2023-10-27 21:10:24 +0800
  surpport model ver.:1.1
  build variant:      cuda
  build with tf inc:  /home/zkm/anaconda3/envs/deepmd/include;/home/zkm/anaconda3/envs/deepmd/include
  build with tf lib:  /home/zkm/anaconda3/envs/deepmd/lib/libtensorflow_cc.so
  set tf intra_op_parallelism_threads: 0
  set tf inter_op_parallelism_threads: 0
  >>> Info of lammps module:
  use deepmd-kit at:  /home/zkm/anaconda3/envs/deepmd  restoring pair style deepmd from restart
  88 atoms
  read_restart CPU = 0.000 seconds
include potential.mod
# NOTE: This script can be modified for different pair styles
# See in.elastic for more info.

# we must undefine any fix ave/* fix before using reset_timestep
if "$(is_defined(fix,avp))" then "unfix avp"
reset_timestep 0

# Choose potential
# pair_style	sw
# pair_coeff * * Si.sw Si

pair_style	deepmd tob11_deepmd_compress.pb
pair_coeff	* * Ca H O Si

atom_modify sort 0 0.0
#kspace_style	ewald 1.0e-6# Setup neighbor style

#neighbor 2.0 bin
neigh_modify once no every 1 delay 0 check yes

# Setup output

fix avp all ave/time  10 10 100 c_thermo_press mode vector

#min_style cg
#minimize 1.0e-15 1.0e-15 10000 10000 #设置能量最小化

thermo		100
thermo_style custom step temp pe press f_avp[1] f_avp[2] f_avp[3] f_avp[4] f_avp[5] f_avp[6]
thermo_modify norm no

# Setup MD

timestep 0.001
fix 4 all nve
fix 5 all langevin 300 300 0.01 123457

# Negative deformation

variable delta equal -0.02*22.8805741059216
variable deltaxy equal -0.02*xy
variable deltaxz equal -0.02*xz
variable deltayz equal -0.02*yz
change_box all z delta 0 -0.457611482118432 remap units box
Changing box ...
  triclinic box = (-0.054739572 -0.04579762 -0.23756387) to (6.8584396 6.2306126 22.185399) with tilt (2.8369773 -0.88657934 0.26423941)

# Run MD

run 1000
Generated 0 of 6 mixed pair_coeff terms from geometric mixing rule
Step          Temp          PotEng         Press         f_avp[1]       f_avp[2]       f_avp[3]       f_avp[4]       f_avp[5]       f_avp[6]
0   270.95964     -575.04729      29069.987      0              0              0              0              0              0
Averages over the last 6 of 11 rows, steps 500 to 1000:
Temp PotEng Press f_avp[1] f_avp[2] f_avp[3] f_avp[4] f_avp[5] f_avp[6]
303.931 -575.5 10282.9 181.344 3835.85 24080.3 -1672.19 2773.29 -337.87
Loop time of 34.0695 on 1 procs for 1000 steps with 88 atoms

include potential.mod
# NOTE: This script can be modified for different pair styles
# See in.elastic for more info.

# we must undefine any fix ave/* fix before using reset_timestep
if "$(is_defined(fix,avp))" then "unfix avp"
unfix avp
reset_timestep 0

# Choose potential
# pair_style	sw
# pair_coeff * * Si.sw Si

pair_style	deepmd tob11_deepmd_compress.pb
pair_coeff	* * Ca H O Si

atom_modify sort 0 0.0
#kspace_style	ewald 1.0e-6# Setup neighbor style

#neighbor 2.0 bin
neigh_modify once no every 1 delay 0 check yes

# Setup output

fix avp all ave/time  10 10 100 c_thermo_press mode vector

#min_style cg
#minimize 1.0e-15 1.0e-15 10000 10000 #设置能量最小化

thermo		100
thermo_style custom step temp pe press f_avp[1] f_avp[2] f_avp[3] f_avp[4] f_avp[5] f_avp[6]
thermo_modify norm no

# Setup MD

timestep 0.001
fix 4 all nve
fix 5 all langevin 300 300 0.01 123457

run 300
Generated 0 of 6 mixed pair_coeff terms from geometric mixing rule
Step          Temp          PotEng         Press         f_avp[1]       f_avp[2]       f_avp[3]       f_avp[4]       f_avp[5]       f_avp[6]
0   361.56775     -575.90134      12300.866      0              0              0              0              0              0
Loop time of 10.3476 on 1 procs for 300 steps with 88 atoms

# Obtain new stress tensor

variable pxx1 equal f_avp[1]
variable pyy1 equal f_avp[2]
variable pzz1 equal f_avp[3]
variable pxy1 equal f_avp[4]
variable pxz1 equal f_avp[5]
variable pyz1 equal f_avp[6]

# Compute elastic constant from pressure tensor

variable C1neg equal 18.2338339331992
variable C2neg equal 47.7897201407761
variable C3neg equal 134.696123819719
variable C4neg equal -7.89485794210405
variable C5neg equal 5.81866831503322
variable C6neg equal -4.19219962529725

# Reset box and simulation parameters

clear
Loaded 1 plugins from /home/zkm/anaconda3/envs/deepmd/lib/deepmd_lmp
box tilt large

The 'box' command has been removed and will be ignored

read_restart restart.equil
Reading restart file ...
  restart file = 2 Aug 2023, LAMMPS = 2 Aug 2023
  restoring atom style atomic from restart
  triclinic box = (-0.054739572 -0.04579762 -0.23756387) to (6.8584396 6.2306126 22.64301) with tilt (2.8369773 -0.88657934 0.26423941)
Summary of lammps deepmd module ...
  >>> Info of deepmd-kit:
  installed to:       /home/zkm/anaconda3/envs/deepmd
  source:             v2.2.7
  source branch:       HEAD
  source commit:      839f4fe7
  source commit at:   2023-10-27 21:10:24 +0800
  surpport model ver.:1.1
  build variant:      cuda
  build with tf inc:  /home/zkm/anaconda3/envs/deepmd/include;/home/zkm/anaconda3/envs/deepmd/include
  build with tf lib:  /home/zkm/anaconda3/envs/deepmd/lib/libtensorflow_cc.so
  set tf intra_op_parallelism_threads: 0
  set tf inter_op_parallelism_threads: 0
  >>> Info of lammps module:
  use deepmd-kit at:  /home/zkm/anaconda3/envs/deepmd  restoring pair style deepmd from restart
  88 atoms
  read_restart CPU = 0.001 seconds
include potential.mod
# NOTE: This script can be modified for different pair styles
# See in.elastic for more info.

# we must undefine any fix ave/* fix before using reset_timestep
if "$(is_defined(fix,avp))" then "unfix avp"
reset_timestep 0

# Choose potential
# pair_style	sw
# pair_coeff * * Si.sw Si

pair_style	deepmd tob11_deepmd_compress.pb
pair_coeff	* * Ca H O Si

atom_modify sort 0 0.0
#kspace_style	ewald 1.0e-6# Setup neighbor style

#neighbor 2.0 bin
neigh_modify once no every 1 delay 0 check yes

# Setup output

fix avp all ave/time  10 10 100 c_thermo_press mode vector

#min_style cg
#minimize 1.0e-15 1.0e-15 10000 10000 #设置能量最小化

thermo		100
thermo_style custom step temp pe press f_avp[1] f_avp[2] f_avp[3] f_avp[4] f_avp[5] f_avp[6]
thermo_modify norm no

# Setup MD

timestep 0.001
fix 4 all nve
fix 5 all langevin 300 300 0.01 123457

# Positive deformation

variable delta equal 0.02*22.8805741059216
variable deltaxy equal 0.02*xy
variable deltaxz equal 0.02*xz
variable deltayz equal 0.02*yz
change_box all z delta 0 0.457611482118432 remap units box
Changing box ...
  triclinic box = (-0.054739572 -0.04579762 -0.23756387) to (6.8584396 6.2306126 23.100622) with tilt (2.8369773 -0.88657934 0.26423941)

# Run MD

run 1000
Generated 0 of 6 mixed pair_coeff terms from geometric mixing rule
Step          Temp          PotEng         Press         f_avp[1]       f_avp[2]       f_avp[3]       f_avp[4]       f_avp[5]       f_avp[6]
0   270.95964     -575.11669     -29768.421      0              0              0              0              0              0
Averages over the last 6 of 11 rows, steps 500 to 1000:
Temp PotEng Press f_avp[1] f_avp[2] f_avp[3] f_avp[4] f_avp[5] f_avp[6]
303.695 -575.264 -14720.6 -10889.7 -13953.7 -20596.3 2968.3 4715.18 -930.127
Loop time of 35.0266 on 1 procs for 1000 steps with 88 atoms

include potential.mod
# NOTE: This script can be modified for different pair styles
# See in.elastic for more info.

# we must undefine any fix ave/* fix before using reset_timestep
if "$(is_defined(fix,avp))" then "unfix avp"
unfix avp
reset_timestep 0

# Choose potential
# pair_style	sw
# pair_coeff * * Si.sw Si

pair_style	deepmd tob11_deepmd_compress.pb
pair_coeff	* * Ca H O Si

atom_modify sort 0 0.0
#kspace_style	ewald 1.0e-6# Setup neighbor style

#neighbor 2.0 bin
neigh_modify once no every 1 delay 0 check yes

# Setup output

fix avp all ave/time  10 10 100 c_thermo_press mode vector

#min_style cg
#minimize 1.0e-15 1.0e-15 10000 10000 #设置能量最小化

thermo		100
thermo_style custom step temp pe press f_avp[1] f_avp[2] f_avp[3] f_avp[4] f_avp[5] f_avp[6]
thermo_modify norm no

# Setup MD

timestep 0.001
fix 4 all nve
fix 5 all langevin 300 300 0.01 123457

run 300
Generated 0 of 6 mixed pair_coeff terms from geometric mixing rule
Step          Temp          PotEng         Press         f_avp[1]       f_avp[2]       f_avp[3]       f_avp[4]       f_avp[5]       f_avp[6]
0   363.72496     -575.70481     -9099.7255      0              0              0              0              0              0
Loop time of 10.7217 on 1 procs for 300 steps with 88 atoms

# Obtain new stress tensor

variable pxx1 equal f_avp[1]
variable pyy1 equal f_avp[2]
variable pzz1 equal f_avp[3]
variable pxy1 equal f_avp[4]
variable pxz1 equal f_avp[5]
variable pyz1 equal f_avp[6]

# Compute elastic constant from pressure tensor

variable C1pos equal 18.4891406088427
variable C2pos equal 15.319160683315
variable C3pos equal 71.5510885446735
variable C4pos equal 0.23971863485785
variable C5pos equal -10.1753966334107
variable C6pos equal -20.869394747591

# Combine positive and negative

variable C13 equal 0.5*(18.2338339331992+18.4891406088427)
variable C23 equal 0.5*(47.7897201407761+15.319160683315)
variable C33 equal 0.5*(134.696123819719+71.5510885446735)
variable C43 equal 0.5*(-7.89485794210405+0.23971863485785)
variable C53 equal 0.5*(5.81866831503322+-10.1753966334107)
variable C63 equal 0.5*(-4.19219962529725+-20.869394747591)

# Delete dir to make sure it is not reused

variable dir delete

# uyz Perturbation

variable dir equal 4
include displace.mod
# NOTE: This script should not need to be
# modified. See in.elastic for more info.
#
# Find which reference length to use

variable len0 equal 22.8805741059216

# Reset box and simulation parameters

clear
Loaded 1 plugins from /home/zkm/anaconda3/envs/deepmd/lib/deepmd_lmp
box tilt large

The 'box' command has been removed and will be ignored

read_restart restart.equil
Reading restart file ...
  restart file = 2 Aug 2023, LAMMPS = 2 Aug 2023
  restoring atom style atomic from restart
  triclinic box = (-0.054739572 -0.04579762 -0.23756387) to (6.8584396 6.2306126 22.64301) with tilt (2.8369773 -0.88657934 0.26423941)
Summary of lammps deepmd module ...
  >>> Info of deepmd-kit:
  installed to:       /home/zkm/anaconda3/envs/deepmd
  source:             v2.2.7
  source branch:       HEAD
  source commit:      839f4fe7
  source commit at:   2023-10-27 21:10:24 +0800
  surpport model ver.:1.1
  build variant:      cuda
  build with tf inc:  /home/zkm/anaconda3/envs/deepmd/include;/home/zkm/anaconda3/envs/deepmd/include
  build with tf lib:  /home/zkm/anaconda3/envs/deepmd/lib/libtensorflow_cc.so
  set tf intra_op_parallelism_threads: 0
  set tf inter_op_parallelism_threads: 0
  >>> Info of lammps module:
  use deepmd-kit at:  /home/zkm/anaconda3/envs/deepmd  restoring pair style deepmd from restart
  88 atoms
  read_restart CPU = 0.001 seconds
include potential.mod
# NOTE: This script can be modified for different pair styles
# See in.elastic for more info.

# we must undefine any fix ave/* fix before using reset_timestep
if "$(is_defined(fix,avp))" then "unfix avp"
reset_timestep 0

# Choose potential
# pair_style	sw
# pair_coeff * * Si.sw Si

pair_style	deepmd tob11_deepmd_compress.pb
pair_coeff	* * Ca H O Si

atom_modify sort 0 0.0
#kspace_style	ewald 1.0e-6# Setup neighbor style

#neighbor 2.0 bin
neigh_modify once no every 1 delay 0 check yes

# Setup output

fix avp all ave/time  10 10 100 c_thermo_press mode vector

#min_style cg
#minimize 1.0e-15 1.0e-15 10000 10000 #设置能量最小化

thermo		100
thermo_style custom step temp pe press f_avp[1] f_avp[2] f_avp[3] f_avp[4] f_avp[5] f_avp[6]
thermo_modify norm no

# Setup MD

timestep 0.001
fix 4 all nve
fix 5 all langevin 300 300 0.01 123457

# Negative deformation

variable delta equal -0.02*22.8805741059216
variable deltaxy equal -0.02*xy
variable deltaxz equal -0.02*xz
variable deltayz equal -0.02*yz
change_box all yz delta -0.457611482118432 remap units box
Changing box ...
  triclinic box = (-0.054739572 -0.04579762 -0.23756387) to (6.8584396 6.2306126 22.64301) with tilt (2.8369773 -0.88657934 -0.19337207)

# Run MD

run 1000
Generated 0 of 6 mixed pair_coeff terms from geometric mixing rule
Step          Temp          PotEng         Press         f_avp[1]       f_avp[2]       f_avp[3]       f_avp[4]       f_avp[5]       f_avp[6]
0   270.95964     -575.42661     -2122.6098      0              0              0              0              0              0
Averages over the last 6 of 11 rows, steps 500 to 1000:
Temp PotEng Press f_avp[1] f_avp[2] f_avp[3] f_avp[4] f_avp[5] f_avp[6]
301.302 -575.453 41.2445 -3267.69 -2348.99 2155.54 592.718 3612.38 5102.96
Loop time of 35.157 on 1 procs for 1000 steps with 88 atoms

include potential.mod
# NOTE: This script can be modified for different pair styles
# See in.elastic for more info.

# we must undefine any fix ave/* fix before using reset_timestep
if "$(is_defined(fix,avp))" then "unfix avp"
unfix avp
reset_timestep 0

# Choose potential
# pair_style	sw
# pair_coeff * * Si.sw Si

pair_style	deepmd tob11_deepmd_compress.pb
pair_coeff	* * Ca H O Si

atom_modify sort 0 0.0
#kspace_style	ewald 1.0e-6# Setup neighbor style

#neighbor 2.0 bin
neigh_modify once no every 1 delay 0 check yes

# Setup output

fix avp all ave/time  10 10 100 c_thermo_press mode vector

#min_style cg
#minimize 1.0e-15 1.0e-15 10000 10000 #设置能量最小化

thermo		100
thermo_style custom step temp pe press f_avp[1] f_avp[2] f_avp[3] f_avp[4] f_avp[5] f_avp[6]
thermo_modify norm no

# Setup MD

timestep 0.001
fix 4 all nve
fix 5 all langevin 300 300 0.01 123457

run 300
Generated 0 of 6 mixed pair_coeff terms from geometric mixing rule
Step          Temp          PotEng         Press         f_avp[1]       f_avp[2]       f_avp[3]       f_avp[4]       f_avp[5]       f_avp[6]
0   354.58062     -575.79621      7148.3292      0              0              0              0              0              0
Loop time of 10.3359 on 1 procs for 300 steps with 88 atoms

# Obtain new stress tensor

variable pxx1 equal f_avp[1]
variable pyy1 equal f_avp[2]
variable pzz1 equal f_avp[3]
variable pxy1 equal f_avp[4]
variable pxz1 equal f_avp[5]
variable pyz1 equal f_avp[6]

# Compute elastic constant from pressure tensor

variable C1neg equal 5.0616102381944
variable C2neg equal 31.4315016811966
variable C3neg equal 38.935643211071
variable C4neg equal 21.6941759909962
variable C5neg equal 4.81694247165442
variable C6neg equal 4.03443718732497

# Reset box and simulation parameters

clear
Loaded 1 plugins from /home/zkm/anaconda3/envs/deepmd/lib/deepmd_lmp
box tilt large

The 'box' command has been removed and will be ignored

read_restart restart.equil
Reading restart file ...
  restart file = 2 Aug 2023, LAMMPS = 2 Aug 2023
  restoring atom style atomic from restart
  triclinic box = (-0.054739572 -0.04579762 -0.23756387) to (6.8584396 6.2306126 22.64301) with tilt (2.8369773 -0.88657934 0.26423941)
Summary of lammps deepmd module ...
  >>> Info of deepmd-kit:
  installed to:       /home/zkm/anaconda3/envs/deepmd
  source:             v2.2.7
  source branch:       HEAD
  source commit:      839f4fe7
  source commit at:   2023-10-27 21:10:24 +0800
  surpport model ver.:1.1
  build variant:      cuda
  build with tf inc:  /home/zkm/anaconda3/envs/deepmd/include;/home/zkm/anaconda3/envs/deepmd/include
  build with tf lib:  /home/zkm/anaconda3/envs/deepmd/lib/libtensorflow_cc.so
  set tf intra_op_parallelism_threads: 0
  set tf inter_op_parallelism_threads: 0
  >>> Info of lammps module:
  use deepmd-kit at:  /home/zkm/anaconda3/envs/deepmd  restoring pair style deepmd from restart
  88 atoms
  read_restart CPU = 0.001 seconds
include potential.mod
# NOTE: This script can be modified for different pair styles
# See in.elastic for more info.

# we must undefine any fix ave/* fix before using reset_timestep
if "$(is_defined(fix,avp))" then "unfix avp"
reset_timestep 0

# Choose potential
# pair_style	sw
# pair_coeff * * Si.sw Si

pair_style	deepmd tob11_deepmd_compress.pb
pair_coeff	* * Ca H O Si

atom_modify sort 0 0.0
#kspace_style	ewald 1.0e-6# Setup neighbor style

#neighbor 2.0 bin
neigh_modify once no every 1 delay 0 check yes

# Setup output

fix avp all ave/time  10 10 100 c_thermo_press mode vector

#min_style cg
#minimize 1.0e-15 1.0e-15 10000 10000 #设置能量最小化

thermo		100
thermo_style custom step temp pe press f_avp[1] f_avp[2] f_avp[3] f_avp[4] f_avp[5] f_avp[6]
thermo_modify norm no

# Setup MD

timestep 0.001
fix 4 all nve
fix 5 all langevin 300 300 0.01 123457

# Positive deformation

variable delta equal 0.02*22.8805741059216
variable deltaxy equal 0.02*xy
variable deltaxz equal 0.02*xz
variable deltayz equal 0.02*yz
change_box all yz delta 0.457611482118432 remap units box
Changing box ...
  triclinic box = (-0.054739572 -0.04579762 -0.23756387) to (6.8584396 6.2306126 22.64301) with tilt (2.8369773 -0.88657934 0.72185089)

# Run MD

run 1000
Generated 0 of 6 mixed pair_coeff terms from geometric mixing rule
Step          Temp          PotEng         Press         f_avp[1]       f_avp[2]       f_avp[3]       f_avp[4]       f_avp[5]       f_avp[6]
0   270.95964     -575.22388     -2649.9301      0              0              0              0              0              0
Averages over the last 6 of 11 rows, steps 500 to 1000:
Temp PotEng Press f_avp[1] f_avp[2] f_avp[3] f_avp[4] f_avp[5] f_avp[6]
302.569 -575.436 -1183.18 -4133.57 -4399.89 504.973 1033.46 6499.07 -6421.63
Loop time of 10.4699 on 1 procs for 1000 steps with 88 atoms

include potential.mod
# NOTE: This script can be modified for different pair styles
# See in.elastic for more info.

# we must undefine any fix ave/* fix before using reset_timestep
if "$(is_defined(fix,avp))" then "unfix avp"
unfix avp
reset_timestep 0

# Choose potential
# pair_style	sw
# pair_coeff * * Si.sw Si

pair_style	deepmd tob11_deepmd_compress.pb
pair_coeff	* * Ca H O Si

atom_modify sort 0 0.0
#kspace_style	ewald 1.0e-6# Setup neighbor style

#neighbor 2.0 bin
neigh_modify once no every 1 delay 0 check yes

# Setup output

fix avp all ave/time  10 10 100 c_thermo_press mode vector

#min_style cg
#minimize 1.0e-15 1.0e-15 10000 10000 #设置能量最小化

thermo		100
thermo_style custom step temp pe press f_avp[1] f_avp[2] f_avp[3] f_avp[4] f_avp[5] f_avp[6]
thermo_modify norm no

# Setup MD

timestep 0.001
fix 4 all nve
fix 5 all langevin 300 300 0.01 123457

run 300
Generated 0 of 6 mixed pair_coeff terms from geometric mixing rule
Step          Temp          PotEng         Press         f_avp[1]       f_avp[2]       f_avp[3]       f_avp[4]       f_avp[5]       f_avp[6]
0   360.01529     -575.79738      2633.7831      0              0              0              0              0              0
Loop time of 9.85563 on 1 procs for 300 steps with 88 atoms

# Obtain new stress tensor

variable pxx1 equal f_avp[1]
variable pyy1 equal f_avp[2]
variable pzz1 equal f_avp[3]
variable pxy1 equal f_avp[4]
variable pxz1 equal f_avp[5]
variable pyz1 equal f_avp[6]

# Compute elastic constant from pressure tensor

variable C1pos equal 21.1065335149327
variable C2pos equal 1.007638069
variable C3pos equal -7.40280170194318
variable C4pos equal 34.5885720226811
variable C5pos equal -17.453449360304
variable C6pos equal -9.42387037617018

# Combine positive and negative

variable C14 equal 0.5*(5.0616102381944+21.1065335149327)
variable C24 equal 0.5*(31.4315016811966+1.007638069)
variable C34 equal 0.5*(38.935643211071+-7.40280170194318)
variable C44 equal 0.5*(21.6941759909962+34.5885720226811)
variable C54 equal 0.5*(4.81694247165442+-17.453449360304)
variable C64 equal 0.5*(4.03443718732497+-9.42387037617018)

# Delete dir to make sure it is not reused

variable dir delete

# uxz Perturbation

variable dir equal 5
include displace.mod
# NOTE: This script should not need to be
# modified. See in.elastic for more info.
#
# Find which reference length to use

variable len0 equal 22.8805741059216

# Reset box and simulation parameters

clear
Loaded 1 plugins from /home/zkm/anaconda3/envs/deepmd/lib/deepmd_lmp
box tilt large

The 'box' command has been removed and will be ignored

read_restart restart.equil
Reading restart file ...
  restart file = 2 Aug 2023, LAMMPS = 2 Aug 2023
  restoring atom style atomic from restart
  triclinic box = (-0.054739572 -0.04579762 -0.23756387) to (6.8584396 6.2306126 22.64301) with tilt (2.8369773 -0.88657934 0.26423941)
Summary of lammps deepmd module ...
  >>> Info of deepmd-kit:
  installed to:       /home/zkm/anaconda3/envs/deepmd
  source:             v2.2.7
  source branch:       HEAD
  source commit:      839f4fe7
  source commit at:   2023-10-27 21:10:24 +0800
  surpport model ver.:1.1
  build variant:      cuda
  build with tf inc:  /home/zkm/anaconda3/envs/deepmd/include;/home/zkm/anaconda3/envs/deepmd/include
  build with tf lib:  /home/zkm/anaconda3/envs/deepmd/lib/libtensorflow_cc.so
  set tf intra_op_parallelism_threads: 0
  set tf inter_op_parallelism_threads: 0
  >>> Info of lammps module:
  use deepmd-kit at:  /home/zkm/anaconda3/envs/deepmd  restoring pair style deepmd from restart
  88 atoms
  read_restart CPU = 0.001 seconds
include potential.mod
# NOTE: This script can be modified for different pair styles
# See in.elastic for more info.

# we must undefine any fix ave/* fix before using reset_timestep
if "$(is_defined(fix,avp))" then "unfix avp"
reset_timestep 0

# Choose potential
# pair_style	sw
# pair_coeff * * Si.sw Si

pair_style	deepmd tob11_deepmd_compress.pb
pair_coeff	* * Ca H O Si

atom_modify sort 0 0.0
#kspace_style	ewald 1.0e-6# Setup neighbor style

#neighbor 2.0 bin
neigh_modify once no every 1 delay 0 check yes

# Setup output

fix avp all ave/time  10 10 100 c_thermo_press mode vector

#min_style cg
#minimize 1.0e-15 1.0e-15 10000 10000 #设置能量最小化

thermo		100
thermo_style custom step temp pe press f_avp[1] f_avp[2] f_avp[3] f_avp[4] f_avp[5] f_avp[6]
thermo_modify norm no

# Setup MD

timestep 0.001
fix 4 all nve
fix 5 all langevin 300 300 0.01 123457

# Negative deformation

variable delta equal -0.02*22.8805741059216
variable deltaxy equal -0.02*xy
variable deltaxz equal -0.02*xz
variable deltayz equal -0.02*yz
change_box all xz delta -0.457611482118432 remap units box
Changing box ...
  triclinic box = (-0.054739572 -0.04579762 -0.23756387) to (6.8584396 6.2306126 22.64301) with tilt (2.8369773 -1.3441908 0.26423941)

# Run MD

run 1000
Generated 0 of 6 mixed pair_coeff terms from geometric mixing rule
Step          Temp          PotEng         Press         f_avp[1]       f_avp[2]       f_avp[3]       f_avp[4]       f_avp[5]       f_avp[6]
0   270.95964     -575.32613     -2089.2984      0              0              0              0              0              0
Averages over the last 6 of 11 rows, steps 500 to 1000:
Temp PotEng Press f_avp[1] f_avp[2] f_avp[3] f_avp[4] f_avp[5] f_avp[6]
303.447 -575.466 -2530.1 -5365 -5374.69 220.027 1306.53 8424.34 -1940.71
Loop time of 34.0414 on 1 procs for 1000 steps with 88 atoms

include potential.mod
# NOTE: This script can be modified for different pair styles
# See in.elastic for more info.

# we must undefine any fix ave/* fix before using reset_timestep
if "$(is_defined(fix,avp))" then "unfix avp"
unfix avp
reset_timestep 0

# Choose potential
# pair_style	sw
# pair_coeff * * Si.sw Si

pair_style	deepmd tob11_deepmd_compress.pb
pair_coeff	* * Ca H O Si

atom_modify sort 0 0.0
#kspace_style	ewald 1.0e-6# Setup neighbor style

#neighbor 2.0 bin
neigh_modify once no every 1 delay 0 check yes

# Setup output

fix avp all ave/time  10 10 100 c_thermo_press mode vector

#min_style cg
#minimize 1.0e-15 1.0e-15 10000 10000 #设置能量最小化

thermo		100
thermo_style custom step temp pe press f_avp[1] f_avp[2] f_avp[3] f_avp[4] f_avp[5] f_avp[6]
thermo_modify norm no

# Setup MD

timestep 0.001
fix 4 all nve
fix 5 all langevin 300 300 0.01 123457

run 300
Generated 0 of 6 mixed pair_coeff terms from geometric mixing rule
Step          Temp          PotEng         Press         f_avp[1]       f_avp[2]       f_avp[3]       f_avp[4]       f_avp[5]       f_avp[6]
0   350.30519     -575.7039       1921.4113      0              0              0              0              0              0
Loop time of 9.92482 on 1 procs for 300 steps with 88 atoms

# Obtain new stress tensor

variable pxx1 equal f_avp[1]
variable pyy1 equal f_avp[2]
variable pzz1 equal f_avp[3]
variable pxy1 equal f_avp[4]
variable pxz1 equal f_avp[5]
variable pyz1 equal f_avp[6]

# Compute elastic constant from pressure tensor

variable C1neg equal 5.3689634884961
variable C2neg equal 17.303547851474
variable C3neg equal 44.0892910773694
variable C4neg equal -9.66909483543825
variable C5neg equal 23.7777517498677
variable C6neg equal 11.1606923488652

# Reset box and simulation parameters

clear
Loaded 1 plugins from /home/zkm/anaconda3/envs/deepmd/lib/deepmd_lmp
box tilt large

The 'box' command has been removed and will be ignored

read_restart restart.equil
Reading restart file ...
  restart file = 2 Aug 2023, LAMMPS = 2 Aug 2023
  restoring atom style atomic from restart
  triclinic box = (-0.054739572 -0.04579762 -0.23756387) to (6.8584396 6.2306126 22.64301) with tilt (2.8369773 -0.88657934 0.26423941)
Summary of lammps deepmd module ...
  >>> Info of deepmd-kit:
  installed to:       /home/zkm/anaconda3/envs/deepmd
  source:             v2.2.7
  source branch:       HEAD
  source commit:      839f4fe7
  source commit at:   2023-10-27 21:10:24 +0800
  surpport model ver.:1.1
  build variant:      cuda
  build with tf inc:  /home/zkm/anaconda3/envs/deepmd/include;/home/zkm/anaconda3/envs/deepmd/include
  build with tf lib:  /home/zkm/anaconda3/envs/deepmd/lib/libtensorflow_cc.so
  set tf intra_op_parallelism_threads: 0
  set tf inter_op_parallelism_threads: 0
  >>> Info of lammps module:
  use deepmd-kit at:  /home/zkm/anaconda3/envs/deepmd  restoring pair style deepmd from restart
  88 atoms
  read_restart CPU = 0.001 seconds
include potential.mod
# NOTE: This script can be modified for different pair styles
# See in.elastic for more info.

# we must undefine any fix ave/* fix before using reset_timestep
if "$(is_defined(fix,avp))" then "unfix avp"
reset_timestep 0

# Choose potential
# pair_style	sw
# pair_coeff * * Si.sw Si

pair_style	deepmd tob11_deepmd_compress.pb
pair_coeff	* * Ca H O Si

atom_modify sort 0 0.0
#kspace_style	ewald 1.0e-6# Setup neighbor style

#neighbor 2.0 bin
neigh_modify once no every 1 delay 0 check yes

# Setup output

fix avp all ave/time  10 10 100 c_thermo_press mode vector

#min_style cg
#minimize 1.0e-15 1.0e-15 10000 10000 #设置能量最小化

thermo		100
thermo_style custom step temp pe press f_avp[1] f_avp[2] f_avp[3] f_avp[4] f_avp[5] f_avp[6]
thermo_modify norm no

# Setup MD

timestep 0.001
fix 4 all nve
fix 5 all langevin 300 300 0.01 123457

# Positive deformation

variable delta equal 0.02*22.8805741059216
variable deltaxy equal 0.02*xy
variable deltaxz equal 0.02*xz
variable deltayz equal 0.02*yz
change_box all xz delta 0.457611482118432 remap units box
Changing box ...
  triclinic box = (-0.054739572 -0.04579762 -0.23756387) to (6.8584396 6.2306126 22.64301) with tilt (2.8369773 -0.42896786 0.26423941)

# Run MD

run 1000
Generated 0 of 6 mixed pair_coeff terms from geometric mixing rule
Step          Temp          PotEng         Press         f_avp[1]       f_avp[2]       f_avp[3]       f_avp[4]       f_avp[5]       f_avp[6]
0   270.95964     -575.33304     -2566.2758      0              0              0              0              0              0
Averages over the last 6 of 11 rows, steps 500 to 1000:
Temp PotEng Press f_avp[1] f_avp[2] f_avp[3] f_avp[4] f_avp[5] f_avp[6]
302.786 -575.446 -1242.73 -4694.75 -4540.31 3999.65 -125.758 -19.6974 554.438
Loop time of 34.7161 on 1 procs for 1000 steps with 88 atoms

include potential.mod
# NOTE: This script can be modified for different pair styles
# See in.elastic for more info.

# we must undefine any fix ave/* fix before using reset_timestep
if "$(is_defined(fix,avp))" then "unfix avp"
unfix avp
reset_timestep 0

# Choose potential
# pair_style	sw
# pair_coeff * * Si.sw Si

pair_style	deepmd tob11_deepmd_compress.pb
pair_coeff	* * Ca H O Si

atom_modify sort 0 0.0
#kspace_style	ewald 1.0e-6# Setup neighbor style

#neighbor 2.0 bin
neigh_modify once no every 1 delay 0 check yes

# Setup output

fix avp all ave/time  10 10 100 c_thermo_press mode vector

#min_style cg
#minimize 1.0e-15 1.0e-15 10000 10000 #设置能量最小化

thermo		100
thermo_style custom step temp pe press f_avp[1] f_avp[2] f_avp[3] f_avp[4] f_avp[5] f_avp[6]
thermo_modify norm no

# Setup MD

timestep 0.001
fix 4 all nve
fix 5 all langevin 300 300 0.01 123457

run 300
Generated 0 of 6 mixed pair_coeff terms from geometric mixing rule
Step          Temp          PotEng         Press         f_avp[1]       f_avp[2]       f_avp[3]       f_avp[4]       f_avp[5]       f_avp[6]
0   360.9773      -575.79596      4426.8537      0              0              0              0              0              0
Loop time of 10.4763 on 1 procs for 300 steps with 88 atoms

# Obtain new stress tensor

variable pxx1 equal f_avp[1]
variable pyy1 equal f_avp[2]
variable pzz1 equal f_avp[3]
variable pxy1 equal f_avp[4]
variable pxz1 equal f_avp[5]
variable pyz1 equal f_avp[6]

# Compute elastic constant from pressure tensor

variable C1pos equal -4.98060037614105
variable C2pos equal -25.5654572596605
variable C3pos equal -59.496599134436
variable C4pos equal -2.3048725653815
variable C5pos equal 13.5378440291058
variable C6pos equal -5.61242764214944

# Combine positive and negative

variable C15 equal 0.5*(5.3689634884961+-4.98060037614105)
variable C25 equal 0.5*(17.303547851474+-25.5654572596605)
variable C35 equal 0.5*(44.0892910773694+-59.496599134436)
variable C45 equal 0.5*(-9.66909483543825+-2.3048725653815)
variable C55 equal 0.5*(23.7777517498677+13.5378440291058)
variable C65 equal 0.5*(11.1606923488652+-5.61242764214944)

# Delete dir to make sure it is not reused

variable dir delete

# uxy Perturbation

variable dir equal 6
include displace.mod
# NOTE: This script should not need to be
# modified. See in.elastic for more info.
#
# Find which reference length to use

variable len0 equal 6.27641021482539

# Reset box and simulation parameters

clear
Loaded 1 plugins from /home/zkm/anaconda3/envs/deepmd/lib/deepmd_lmp
box tilt large

The 'box' command has been removed and will be ignored

read_restart restart.equil
Reading restart file ...
  restart file = 2 Aug 2023, LAMMPS = 2 Aug 2023
  restoring atom style atomic from restart
  triclinic box = (-0.054739572 -0.04579762 -0.23756387) to (6.8584396 6.2306126 22.64301) with tilt (2.8369773 -0.88657934 0.26423941)
Summary of lammps deepmd module ...
  >>> Info of deepmd-kit:
  installed to:       /home/zkm/anaconda3/envs/deepmd
  source:             v2.2.7
  source branch:       HEAD
  source commit:      839f4fe7
  source commit at:   2023-10-27 21:10:24 +0800
  surpport model ver.:1.1
  build variant:      cuda
  build with tf inc:  /home/zkm/anaconda3/envs/deepmd/include;/home/zkm/anaconda3/envs/deepmd/include
  build with tf lib:  /home/zkm/anaconda3/envs/deepmd/lib/libtensorflow_cc.so
  set tf intra_op_parallelism_threads: 0
  set tf inter_op_parallelism_threads: 0
  >>> Info of lammps module:
  use deepmd-kit at:  /home/zkm/anaconda3/envs/deepmd  restoring pair style deepmd from restart
  88 atoms
  read_restart CPU = 0.001 seconds
include potential.mod
# NOTE: This script can be modified for different pair styles
# See in.elastic for more info.

# we must undefine any fix ave/* fix before using reset_timestep
if "$(is_defined(fix,avp))" then "unfix avp"
reset_timestep 0

# Choose potential
# pair_style	sw
# pair_coeff * * Si.sw Si

pair_style	deepmd tob11_deepmd_compress.pb
pair_coeff	* * Ca H O Si

atom_modify sort 0 0.0
#kspace_style	ewald 1.0e-6# Setup neighbor style

#neighbor 2.0 bin
neigh_modify once no every 1 delay 0 check yes

# Setup output

fix avp all ave/time  10 10 100 c_thermo_press mode vector

#min_style cg
#minimize 1.0e-15 1.0e-15 10000 10000 #设置能量最小化

thermo		100
thermo_style custom step temp pe press f_avp[1] f_avp[2] f_avp[3] f_avp[4] f_avp[5] f_avp[6]
thermo_modify norm no

# Setup MD

timestep 0.001
fix 4 all nve
fix 5 all langevin 300 300 0.01 123457

# Negative deformation

variable delta equal -0.02*6.27641021482539
variable deltaxy equal -0.02*xy
variable deltaxz equal -0.02*xz
variable deltayz equal -0.02*yz
change_box all xy delta -0.125528204296508 remap units box
Changing box ...
  triclinic box = (-0.054739572 -0.04579762 -0.23756387) to (6.8584396 6.2306126 22.64301) with tilt (2.7114491 -0.88657934 0.26423941)

# Run MD

run 1000
Generated 0 of 6 mixed pair_coeff terms from geometric mixing rule
Step          Temp          PotEng         Press         f_avp[1]       f_avp[2]       f_avp[3]       f_avp[4]       f_avp[5]       f_avp[6]
0   270.95964     -575.19879     -1181.5647      0              0              0              0              0              0
Averages over the last 6 of 11 rows, steps 500 to 1000:
Temp PotEng Press f_avp[1] f_avp[2] f_avp[3] f_avp[4] f_avp[5] f_avp[6]
304.056 -575.469 -4000.96 -6093.89 -7045.13 -1186.72 8203.03 4066.41 -1184.29
Loop time of 34.7011 on 1 procs for 1000 steps with 88 atoms

include potential.mod
# NOTE: This script can be modified for different pair styles
# See in.elastic for more info.

# we must undefine any fix ave/* fix before using reset_timestep
if "$(is_defined(fix,avp))" then "unfix avp"
unfix avp
reset_timestep 0

# Choose potential
# pair_style	sw
# pair_coeff * * Si.sw Si

pair_style	deepmd tob11_deepmd_compress.pb
pair_coeff	* * Ca H O Si

atom_modify sort 0 0.0
#kspace_style	ewald 1.0e-6# Setup neighbor style

#neighbor 2.0 bin
neigh_modify once no every 1 delay 0 check yes

# Setup output

fix avp all ave/time  10 10 100 c_thermo_press mode vector

#min_style cg
#minimize 1.0e-15 1.0e-15 10000 10000 #设置能量最小化

thermo		100
thermo_style custom step temp pe press f_avp[1] f_avp[2] f_avp[3] f_avp[4] f_avp[5] f_avp[6]
thermo_modify norm no

# Setup MD

timestep 0.001
fix 4 all nve
fix 5 all langevin 300 300 0.01 123457

run 300
Generated 0 of 6 mixed pair_coeff terms from geometric mixing rule
Step          Temp          PotEng         Press         f_avp[1]       f_avp[2]       f_avp[3]       f_avp[4]       f_avp[5]       f_avp[6]
0   366.28378     -575.77632      3671.1073      0              0              0              0              0              0
Loop time of 7.3782 on 1 procs for 300 steps with 88 atoms

# Obtain new stress tensor

variable pxx1 equal f_avp[1]
variable pyy1 equal f_avp[2]
variable pzz1 equal f_avp[3]
variable pxy1 equal f_avp[4]
variable pxz1 equal f_avp[5]
variable pyz1 equal f_avp[6]

# Compute elastic constant from pressure tensor

variable C1neg equal -2.69666781393929
variable C2neg equal 20.8640161954585
variable C3neg equal 51.6200867342376
variable C4neg equal -11.2866757712347
variable C5neg equal 7.62162421647126
variable C6neg equal 39.8300930415317

# Reset box and simulation parameters

clear
Loaded 1 plugins from /home/zkm/anaconda3/envs/deepmd/lib/deepmd_lmp
box tilt large

The 'box' command has been removed and will be ignored

read_restart restart.equil
Reading restart file ...
  restart file = 2 Aug 2023, LAMMPS = 2 Aug 2023
  restoring atom style atomic from restart
  triclinic box = (-0.054739572 -0.04579762 -0.23756387) to (6.8584396 6.2306126 22.64301) with tilt (2.8369773 -0.88657934 0.26423941)
Summary of lammps deepmd module ...
  >>> Info of deepmd-kit:
  installed to:       /home/zkm/anaconda3/envs/deepmd
  source:             v2.2.7
  source branch:       HEAD
  source commit:      839f4fe7
  source commit at:   2023-10-27 21:10:24 +0800
  surpport model ver.:1.1
  build variant:      cuda
  build with tf inc:  /home/zkm/anaconda3/envs/deepmd/include;/home/zkm/anaconda3/envs/deepmd/include
  build with tf lib:  /home/zkm/anaconda3/envs/deepmd/lib/libtensorflow_cc.so
  set tf intra_op_parallelism_threads: 0
  set tf inter_op_parallelism_threads: 0
  >>> Info of lammps module:
  use deepmd-kit at:  /home/zkm/anaconda3/envs/deepmd  restoring pair style deepmd from restart
  88 atoms
  read_restart CPU = 0.001 seconds
include potential.mod
# NOTE: This script can be modified for different pair styles
# See in.elastic for more info.

# we must undefine any fix ave/* fix before using reset_timestep
if "$(is_defined(fix,avp))" then "unfix avp"
reset_timestep 0

# Choose potential
# pair_style	sw
# pair_coeff * * Si.sw Si

pair_style	deepmd tob11_deepmd_compress.pb
pair_coeff	* * Ca H O Si

atom_modify sort 0 0.0
#kspace_style	ewald 1.0e-6# Setup neighbor style

#neighbor 2.0 bin
neigh_modify once no every 1 delay 0 check yes

# Setup output

fix avp all ave/time  10 10 100 c_thermo_press mode vector

#min_style cg
#minimize 1.0e-15 1.0e-15 10000 10000 #设置能量最小化

thermo		100
thermo_style custom step temp pe press f_avp[1] f_avp[2] f_avp[3] f_avp[4] f_avp[5] f_avp[6]
thermo_modify norm no

# Setup MD

timestep 0.001
fix 4 all nve
fix 5 all langevin 300 300 0.01 123457

# Positive deformation

variable delta equal 0.02*6.27641021482539
variable deltaxy equal 0.02*xy
variable deltaxz equal 0.02*xz
variable deltayz equal 0.02*yz
change_box all xy delta 0.125528204296508 remap units box
Changing box ...
  triclinic box = (-0.054739572 -0.04579762 -0.23756387) to (6.8584396 6.2306126 22.64301) with tilt (2.9625055 -0.88657934 0.26423941)

# Run MD

run 1000
Generated 0 of 6 mixed pair_coeff terms from geometric mixing rule
Step          Temp          PotEng         Press         f_avp[1]       f_avp[2]       f_avp[3]       f_avp[4]       f_avp[5]       f_avp[6]
0   270.95964     -575.42967     -3352.2038      0              0              0              0              0              0
Averages over the last 6 of 11 rows, steps 500 to 1000:
Temp PotEng Press f_avp[1] f_avp[2] f_avp[3] f_avp[4] f_avp[5] f_avp[6]
302.192 -575.441 1260.42 -2589.56 -643.794 3245.74 -6345.84 4575.37 -664.008
Loop time of 32.0985 on 1 procs for 1000 steps with 88 atoms

include potential.mod
# NOTE: This script can be modified for different pair styles
# See in.elastic for more info.

# we must undefine any fix ave/* fix before using reset_timestep
if "$(is_defined(fix,avp))" then "unfix avp"
unfix avp
reset_timestep 0

# Choose potential
# pair_style	sw
# pair_coeff * * Si.sw Si

pair_style	deepmd tob11_deepmd_compress.pb
pair_coeff	* * Ca H O Si

atom_modify sort 0 0.0
#kspace_style	ewald 1.0e-6# Setup neighbor style

#neighbor 2.0 bin
neigh_modify once no every 1 delay 0 check yes

# Setup output

fix avp all ave/time  10 10 100 c_thermo_press mode vector

#min_style cg
#minimize 1.0e-15 1.0e-15 10000 10000 #设置能量最小化

thermo		100
thermo_style custom step temp pe press f_avp[1] f_avp[2] f_avp[3] f_avp[4] f_avp[5] f_avp[6]
thermo_modify norm no

# Setup MD

timestep 0.001
fix 4 all nve
fix 5 all langevin 300 300 0.01 123457

run 300
Generated 0 of 6 mixed pair_coeff terms from geometric mixing rule
Step          Temp          PotEng         Press         f_avp[1]       f_avp[2]       f_avp[3]       f_avp[4]       f_avp[5]       f_avp[6]
0   353.2905      -575.90093      3562.3708      0              0              0              0              0              0
Loop time of 9.98172 on 1 procs for 300 steps with 88 atoms

# Obtain new stress tensor

variable pxx1 equal f_avp[1]
variable pyy1 equal f_avp[2]
variable pzz1 equal f_avp[3]
variable pxy1 equal f_avp[4]
variable pxz1 equal f_avp[5]
variable pyz1 equal f_avp[6]

# Compute elastic constant from pressure tensor

variable C1pos equal 8.49451190628218
variable C2pos equal -24.4788972205755
variable C3pos equal -16.8470326359339
variable C4pos equal 7.90906483486214
variable C5pos equal -12.5120452417449
variable C6pos equal 27.034213615288

# Combine positive and negative

variable C16 equal 0.5*(-2.69666781393929+8.49451190628218)
variable C26 equal 0.5*(20.8640161954585+-24.4788972205755)
variable C36 equal 0.5*(51.6200867342376+-16.8470326359339)
variable C46 equal 0.5*(-11.2866757712347+7.90906483486214)
variable C56 equal 0.5*(7.62162421647126+-12.5120452417449)
variable C66 equal 0.5*(39.8300930415317+27.034213615288)

# Delete dir to make sure it is not reused

variable dir delete

# Output final values

variable C11all equal 97.5955007478942
variable C22all equal 107.403775734561
variable C33all equal 103.123606182196

variable C12all equal 0.5*(33.7098483279807+50.1347143383313)
variable C13all equal 0.5*(18.3614872710209+52.6628633254421)
variable C23all equal 0.5*(31.5544404120455+31.1423800017896)

variable C44all equal 28.1413740068386
variable C55all equal 18.6577978894868
variable C66all equal 33.4321533284098

variable C14all equal 0.5*(13.0840718765636+4.83177503181461)
variable C15all equal 0.5*(0.194181556177525+-0.940582449347225)
variable C16all equal 0.5*(2.89892204617144+-10.7261209811478)

variable C24all equal 0.5*(16.2195698750983+1.6161478152968)
variable C25all equal 0.5*(-4.13095470409325+-0.6909381791085)
variable C26all equal 0.5*(-1.8074405125585+-18.2126849302954)

variable C34all equal 0.5*(15.7664207545639+-3.8275696536231)
variable C35all equal 0.5*(-7.7036540285333+-2.17836415918874)
variable C36all equal 0.5*(17.3865270491519+-12.5307971864441)

variable C45all equal 0.5*(-5.98698370040987+-6.31825344432479)
variable C46all equal 0.5*(-1.68880546818628+-2.69471659442261)
variable C56all equal 0.5*(-2.44521051263682+2.77413235335788)

print "========================================="
=========================================
print "Components of the Elastic Constant Tensor"
Components of the Elastic Constant Tensor
print "========================================="
=========================================

Elastic Constant C11all = 97.5955007478942 GPa
Elastic Constant C22all = 107.403775734561 GPa
Elastic Constant C33all = 103.123606182196 GPa

Elastic Constant C12all = 41.922281333156 GPa
Elastic Constant C13all = 35.5121752982315 GPa
Elastic Constant C23all = 31.3484102069175 GPa

Elastic Constant C44all = 28.1413740068386 GPa
Elastic Constant C55all = 18.6577978894868 GPa
Elastic Constant C66all = 33.4321533284098 GPa

Elastic Constant C14all = 8.95792345418911 GPa
Elastic Constant C15all = -0.37320044658485 GPa
Elastic Constant C16all = -3.91359946748818 GPa

Elastic Constant C24all = 8.91785884519755 GPa
Elastic Constant C25all = -2.41094644160088 GPa
Elastic Constant C26all = -10.0100627214269 GPa

Elastic Constant C34all = 5.9694255504704 GPa
Elastic Constant C35all = -4.94100909386102 GPa
Elastic Constant C36all = 2.4278649313539 GPa

Elastic Constant C45all = -6.15261857236733 GPa
Elastic Constant C46all = -2.19176103130444 GPa
Elastic Constant C56all = 0.16446092036053 GPa

print " "

print "Cij tensor matrix"
Cij tensor matrix
print " "

write_restart restart2
System init for write_restart ...
Generated 0 of 6 mixed pair_coeff terms from geometric mixing rule
