LAMMPS (29 Sep 2021 - Update 2)

units	metal
dimension 3
atom_style atomic
boundary        p p p
newton off

box tilt large
read_data tob11_ref_deepmd.data
Reading data file ...
  triclinic box = (0.0000000 0.0000000 0.0000000) to (6.8037000 6.1848150 22.405446) with tilt (2.6646871 0.29402869 -0.26981789)
  reading atoms ...
  88 atoms

#special_bonds lj/coul 0.0 0.0 1.0
#atom_modify sort 0 0.0

pair_style	nequip
pair_coeff	* * tob11_l3-deployed.pth Ca H O Si
mass            1 40.079800
mass            4 28.08500
mass            3 15.9994
mass            2 1.00794

timestep 0.001

velocity all create 300 4928459 rot yes dist gaussian #温度初始化
min_style cg
minimize 1.0e-15 1.0e-15 100000 100000
  update every 1 steps, delay 0 steps, check yes
Step Temp E_pair E_mol TotEng Press
0          300   -571.49316            0   -568.11947    20949.295
Loop time of 111.045 on 1 procs for 203 steps with 88 atoms

Minimization stats:
  Stopping criterion = energy tolerance
  Energy initial, next-to-last, final =
  Force two-norm initial, final = 16.218635 0.087135782
  Force max component initial, final = 3.7823694 0.022303710
  Final line search alpha, max atom move = 1.0000000 0.022303710
  Iterations, force evaluations = 203 406

thermo 100
#thermo_style  custom step temp etotal cella cellb cellc cellalpha cellbeta cellgamma pxx pyy pzz
thermo_style  custom step temp press etotal lx ly lz xy yz xz pxx pyy pzz

fix 1 all npt temp 300.0 300.0 0.1 aniso 1.01325 1.01325 1.0

run 5000
Step Temp Press TotEng Lx Ly Lz Xy Yz Xz Pxx Pyy Pzz
203          300    11029.102   -574.61752       6.8037     6.184815    22.405446    2.6646871  -0.26981789   0.29402869    4911.8789    15670.849    12504.579
Averages over the last 26 of 52 rows, steps 2800 to 5203:
Temp Press TotEng Lx Ly Lz Xy Yz Xz Pxx Pyy Pzz
293.89 1196.97 -571.232 6.80457 6.24746 22.6174 2.69168 -0.27237 0.29681 2282.16 1179.63 129.138
Loop time of 1277.42 on 1 procs for 5000 steps with 88 atoms

write_dump all custom output-tob11_ref.dump id type x y z fx fy fz

compute         rdf_nequip all rdf 400 4 3 4 3 4 3
fix             2 all ave/time 10 10 100 c_rdf_nequip[*] file tob11_Ref.rdf mode vector

run 5000
  update every 1 steps, delay 10 steps, check yes
Step Temp Press TotEng Lx Ly Lz Xy Yz Xz Pxx Pyy Pzz
5203    282.02087    7777.1359   -571.45264    6.7436197    6.2491608    22.626931    2.6924101  -0.27248513   0.29693525    9652.0522    8780.5415     4898.814
Averages over the last 26 of 52 rows, steps 7800 to 10203:
Temp Press TotEng Lx Ly Lz Xy Yz Xz Pxx Pyy Pzz
303.84 -1234.85 -571.333 6.84419 6.22087 22.5939 2.68022 -0.272088 0.296502 -2700.79 32.4527 -1036.22
Loop time of 1280.58 on 1 procs for 5000 steps with 88 atoms
