LAMMPS (2 Aug 2023 - Update 1)
Loaded 1 plugins from /home/zkm/anaconda3/envs/deepmd/lib/deepmd_lmp
# Compute elastic constant tensor for a crystal at finite temperature
#
# WARNING: This script attempts to measure small differences in
# statistical averages generated by finite temperature MD simulations.
# This creates many more opportunities for errors to occur, compared
# to the zero temperature version provided in examples/ELASTIC.
# Hence, it is always a good idea to start with the zero temperature
# calculation, before attempting to use this script.
#
# Written by Aidan Thompson (Sandia, athomps@sandia.gov)
#
#  This script uses the following three include files.
#
#   init.mod      (must be modified for different crystal structures)
# 	       	  Define units, MD parameters, deformation parameters,
#		  and initial configuration of the atoms and simulation cell.
#
#
#   potential.mod    (must be modified for different pair styles)
# 		     Define pair style and other attributes
#		     not stored in restart file
#
#
#   displace.mod    (displace.mod should not need to be modified)
# 		    Perform positive and negative box displacements
# 		    It uses the resultant changes
#		    in stress to compute one
# 		    row of the elastic stiffness tensor
#
#		    Inputs variables:
#		    	   dir = the Voigt deformation component
#		    		    (1,2,3,4,5,6)
#		    Global constants:
#       	    	   up = the deformation magnitude (strain units)
#       		   cfac = conversion from LAMMPS pressure units to
#               	   output units for elastic constants
#
#
#  To run this on a different system, it should only be necessary to
#  modify the files init.mod and potential.mod. In order to calculate
#  the elastic constants correctly, care must be taken to specify
#  the correct units in init.mod (units, cfac and cunits). It is also
#  important to verify that the MD sampling of stress components
#  is generating accurate statistical averages.
#  One indication of this is that the elastic constants are insensitive
#  check for finite size effects.
#

# include init.mod

# NOTE: This script can be modified for different atomic structures,
# units, etc. See in.elastic for more info.
#

# Define the finite deformation size. Try several values of this
# variable to verify that results do not depend on it.
variable up equal 2.0e-2

# real units, elastic constants in GPa
units		metal
atom_style atomic
variable cfac equal 1.0e-4
variable cunits string GPa

# Define MD parameters
variable nevery equal 10                  # sampling interval
variable nrepeat equal 10                 # number of samples
variable nfreq equal 10*10
variable nthermo equal 100
variable nequil equal 10*100
variable nrun equal 3*100
variable temp equal 300                   # temperature of initial sample
variable timestep equal 0.001             # timestep
variable adiabatic equal 2                # adiabatic (1) or isothermal (2)
variable tdamp equal 0.01                 # time constant for thermostat
variable seed equal 123457                # seed for thermostat

# generate the box and atom positions using a diamond lattice
variable a equal 5.431

boundary	p p p

box tilt large

The 'box' command has been removed and will be ignored

read_data tob14_ref_deepmd.data
Reading data file ...
  triclinic box = (0 0 0) to (6.9541015 6.3530143 28.422936) with tilt (2.6303553 0.54033995 1.3928068)
  reading atoms ...
  104 atoms

pair_style	deepmd tob14_deepmd_compress.pb
Summary of lammps deepmd module ...
  >>> Info of deepmd-kit:
  installed to:       /home/zkm/anaconda3/envs/deepmd
  source:             v2.2.7
  source branch:       HEAD
  source commit:      839f4fe7
  source commit at:   2023-10-27 21:10:24 +0800
  surpport model ver.:1.1
  build variant:      cuda
  build with tf inc:  /home/zkm/anaconda3/envs/deepmd/include;/home/zkm/anaconda3/envs/deepmd/include
  build with tf lib:  /home/zkm/anaconda3/envs/deepmd/lib/libtensorflow_cc.so
  set tf intra_op_parallelism_threads: 0
  set tf inter_op_parallelism_threads: 0
  >>> Info of lammps module:
  use deepmd-kit at:  /home/zkm/anaconda3/envs/deepmdpair_coeff	* * Ca Si O H
mass            1 40.079800
mass            2 28.08500
mass            3 15.9994
mass            4 1.00794

change_box all triclinic
Changing box ...
  triclinic box = (0 0 0) to (6.9541015 6.3530143 28.422936) with tilt (2.6303553 0.54033995 1.3928068)

velocity	all create 300 87287

thermo 100
min_style cg
minimize 1.0e-15 1.0e-15 100000 100000 #设置能量最小化

CITE-CITE-CITE-CITE-CITE-CITE-CITE-CITE-CITE-CITE-CITE-CITE-CITE

Your simulation uses code contributions which should be cited:

- USER-DEEPMD package:

@article{Wang_ComputPhysCommun_2018_v228_p178,
  author = {Wang, Han and Zhang, Linfeng and Han, Jiequn and E, Weinan},
  doi = {10.1016/j.cpc.2018.03.016},
  url = {https://doi.org/10.1016/j.cpc.2018.03.016},
  year = 2018,
  month = {jul},
  publisher = {Elsevier {BV}},
  volume = 228,
  journal = {Comput. Phys. Commun.},
  title = {{DeePMD-kit: A deep learning package for many-body potential energy representation and molecular dynamics}},
  pages = {178--184}
}
@misc{Zeng_JChemPhys_2023_v159_p054801,
  title  = {{DeePMD-kit v2: A software package for deep potential models}},
  author =   {Jinzhe Zeng and Duo Zhang and Denghui Lu and Pinghui Mo and Zeyu Li
         and Yixiao Chen and Mari{\'a}n Rynik and Li'ang Huang and Ziyao Li and
         Shaochen Shi and Yingze Wang and Haotian Ye and Ping Tuo and Jiabin
         Yang and Ye Ding and Yifan Li and Davide Tisi and Qiyu Zeng and Han
         Bao and Yu Xia and Jiameng Huang and Koki Muraoka and Yibo Wang and
         Junhan Chang and Fengbo Yuan and Sigbj{\o}rn L{\o}land Bore and Chun
         Cai and Yinnian Lin and Bo Wang and Jiayan Xu and Jia-Xin Zhu and
         Chenxing Luo and Yuzhi Zhang and Rhys E A Goodall and Wenshuo Liang
         and Anurag Kumar Singh and Sikai Yao and Jingchao Zhang and Renata
         Wentzcovitch and Jiequn Han and Jie Liu and Weile Jia and Darrin M
         York and Weinan E and Roberto Car and Linfeng Zhang and Han Wang},
  journal =  {J. Chem. Phys.},
  volume =   159,
  issue =    5,
  year =    2023,
  pages  =   054801,
  doi =      {10.1063/5.0155600},
}

CITE-CITE-CITE-CITE-CITE-CITE-CITE-CITE-CITE-CITE-CITE-CITE-CITE

Generated 0 of 6 mixed pair_coeff terms from geometric mixing rule
Step          Temp          E_pair         E_mol          TotEng         Press
0   300           -655.95755      0             -651.96342     -42966.266
Loop time of 45.3053 on 1 procs for 531 steps with 104 atoms

Minimization stats:
  Stopping criterion = energy tolerance
  Energy initial, next-to-last, final =
  Force two-norm initial, final = 18.742849 5.7377709e-06
  Force max component initial, final = 4.1474401 1.3497847e-06
  Final line search alpha, max atom move = 1 1.3497847e-06
  Iterations, force evaluations = 531 1062

thermo_style  custom step temp press etotal lx ly lz xy yz xz pxx pyy pzz

#fix 456 all nve
#fix 567 all langevin 300.0 300.0 0.1 12345

#run 5000

#unfix 456
#unfix 567
fix 123 all npt temp 300 300 1 tri 1.0 1.0 1
run 10000
Generated 0 of 6 mixed pair_coeff terms from geometric mixing rule
Step          Temp          Press          TotEng           Lx             Ly             Lz             Xy             Yz             Xz            Pxx            Pyy            Pzz
531   300           -31114.416     -660.01821      6.9541015      6.3530143      28.422936      2.6303553      1.3928068      0.54033995    -32481.925     -37139.731     -23721.591
Averages over the last 51 of 102 rows, steps 5600 to 10531:
Temp Press TotEng Lx Ly Lz Xy Yz Xz Pxx Pyy Pzz
295.342 -703.101 -657.264 6.73816 6.22544 28.5518 2.66426 -0.0778141 -0.13104 424.443 -198.808 -2334.94
Loop time of 433.024 on 1 procs for 10000 steps with 104 atoms

unfix 123

# Compute initial state

variable thermostat equal 0
include potential.mod
# NOTE: This script can be modified for different pair styles
# See in.elastic for more info.

# we must undefine any fix ave/* fix before using reset_timestep
if "$(is_defined(fix,avp))" then "unfix avp"
reset_timestep 0

# Choose potential
# pair_style	sw
# pair_coeff * * Si.sw Si

pair_style	deepmd tob14_deepmd_compress.pb
pair_coeff	* * Ca Si O H

atom_modify sort 0 0.0
#kspace_style	ewald 1.0e-6# Setup neighbor style

#neighbor 2.0 bin
neigh_modify once no every 1 delay 0 check yes

# Setup output

fix avp all ave/time  10 10 100 c_thermo_press mode vector

#min_style cg
#minimize 1.0e-15 1.0e-15 10000 10000 #设置能量最小化

thermo		100
thermo_style custom step temp pe press f_avp[1] f_avp[2] f_avp[3] f_avp[4] f_avp[5] f_avp[6]
thermo_modify norm no

# Setup MD

timestep 0.001
fix 4 all nve

run 1000
Generated 0 of 6 mixed pair_coeff terms from geometric mixing rule
Step          Temp          PotEng         Press         f_avp[1]       f_avp[2]       f_avp[3]       f_avp[4]       f_avp[5]       f_avp[6]
0   350.37235     -661.94414     -8459.6505      0              0              0              0              0              0
Averages over the last 6 of 11 rows, steps 500 to 1000:
Temp PotEng Press f_avp[1] f_avp[2] f_avp[3] f_avp[4] f_avp[5] f_avp[6]
294.75 -661.183 -246.555 -2400.84 1162.51 437.501 -6876.83 1830.27 2037.57
Loop time of 42.8721 on 1 procs for 1000 steps with 104 atoms

variable thermostat equal 1

print 1
1

include potential.mod
# NOTE: This script can be modified for different pair styles
# See in.elastic for more info.

# we must undefine any fix ave/* fix before using reset_timestep
if "$(is_defined(fix,avp))" then "unfix avp"
unfix avp
reset_timestep 0

# Choose potential
# pair_style	sw
# pair_coeff * * Si.sw Si

pair_style	deepmd tob14_deepmd_compress.pb
pair_coeff	* * Ca Si O H

atom_modify sort 0 0.0
#kspace_style	ewald 1.0e-6# Setup neighbor style

#neighbor 2.0 bin
neigh_modify once no every 1 delay 0 check yes

# Setup output

fix avp all ave/time  10 10 100 c_thermo_press mode vector

#min_style cg
#minimize 1.0e-15 1.0e-15 10000 10000 #设置能量最小化

thermo		100
thermo_style custom step temp pe press f_avp[1] f_avp[2] f_avp[3] f_avp[4] f_avp[5] f_avp[6]
thermo_modify norm no

# Setup MD

timestep 0.001
fix 4 all nve
fix 5 all langevin 300 300 0.01 123457

run 300
Generated 0 of 6 mixed pair_coeff terms from geometric mixing rule
Step          Temp          PotEng         Press         f_avp[1]       f_avp[2]       f_avp[3]       f_avp[4]       f_avp[5]       f_avp[6]
0   278.36022     -660.95821      2590.2503      0              0              0              0              0              0
Loop time of 13.1168 on 1 procs for 300 steps with 104 atoms

variable pxx0 equal f_avp[1]
variable pyy0 equal f_avp[2]
variable pzz0 equal f_avp[3]
variable pxy0 equal f_avp[4]
variable pxz0 equal f_avp[5]
variable pyz0 equal f_avp[6]

variable tmp equal lx
variable lx0 equal 6.75716240259352
variable tmp equal ly
variable ly0 equal 6.21487781891147
variable tmp equal lz
variable lz0 equal 28.791676609896

# These formulas define the derivatives w.r.t. strain components
# Constants uses $, variables use v_
variable d1 equal -(v_pxx1--4414.34373864053)/(v_delta/v_len0)*0.0001
variable d2 equal -(v_pyy1-3009.65458840715)/(v_delta/v_len0)*0.0001
variable d3 equal -(v_pzz1--5201.8650554309)/(v_delta/v_len0)*0.0001
variable d4 equal -(v_pyz1-3307.98365859659)/(v_delta/v_len0)*0.0001
variable d5 equal -(v_pxz1-2823.92487039299)/(v_delta/v_len0)*0.0001
variable d6 equal -(v_pxy1--574.737644139524)/(v_delta/v_len0)*0.0001

# Write restart
write_restart restart.equil
System init for write_restart ...
Generated 0 of 6 mixed pair_coeff terms from geometric mixing rule

# uxx Perturbation

variable dir equal 1
include displace.mod
# NOTE: This script should not need to be
# modified. See in.elastic for more info.
#
# Find which reference length to use

variable len0 equal 6.75716240259352

# Reset box and simulation parameters

clear
Loaded 1 plugins from /home/zkm/anaconda3/envs/deepmd/lib/deepmd_lmp
box tilt large

The 'box' command has been removed and will be ignored

read_restart restart.equil
Reading restart file ...
  restart file = 2 Aug 2023, LAMMPS = 2 Aug 2023
  restoring atom style atomic from restart
  triclinic box = (0.098469545 0.06906824 -0.18437048) to (6.8556319 6.2839461 28.607306) with tilt (2.7624616 0.011373801 0.2136093)
Summary of lammps deepmd module ...
  >>> Info of deepmd-kit:
  installed to:       /home/zkm/anaconda3/envs/deepmd
  source:             v2.2.7
  source branch:       HEAD
  source commit:      839f4fe7
  source commit at:   2023-10-27 21:10:24 +0800
  surpport model ver.:1.1
  build variant:      cuda
  build with tf inc:  /home/zkm/anaconda3/envs/deepmd/include;/home/zkm/anaconda3/envs/deepmd/include
  build with tf lib:  /home/zkm/anaconda3/envs/deepmd/lib/libtensorflow_cc.so
  set tf intra_op_parallelism_threads: 0
  set tf inter_op_parallelism_threads: 0
  >>> Info of lammps module:
  use deepmd-kit at:  /home/zkm/anaconda3/envs/deepmd  restoring pair style deepmd from restart
  104 atoms
  read_restart CPU = 0.001 seconds
include potential.mod
# NOTE: This script can be modified for different pair styles
# See in.elastic for more info.

# we must undefine any fix ave/* fix before using reset_timestep
if "$(is_defined(fix,avp))" then "unfix avp"
reset_timestep 0

# Choose potential
# pair_style	sw
# pair_coeff * * Si.sw Si

pair_style	deepmd tob14_deepmd_compress.pb
pair_coeff	* * Ca Si O H

atom_modify sort 0 0.0
#kspace_style	ewald 1.0e-6# Setup neighbor style

#neighbor 2.0 bin
neigh_modify once no every 1 delay 0 check yes

# Setup output

fix avp all ave/time  10 10 100 c_thermo_press mode vector

#min_style cg
#minimize 1.0e-15 1.0e-15 10000 10000 #设置能量最小化

thermo		100
thermo_style custom step temp pe press f_avp[1] f_avp[2] f_avp[3] f_avp[4] f_avp[5] f_avp[6]
thermo_modify norm no

# Setup MD

timestep 0.001
fix 4 all nve
fix 5 all langevin 300 300 0.01 123457

# Negative deformation

variable delta equal -0.02*6.75716240259352
variable deltaxy equal -0.02*xy
variable deltaxz equal -0.02*xz
variable deltayz equal -0.02*yz
change_box all x delta 0 -0.13514324805187 xy delta -0.0552492323085879 xz delta -0.000227476019256272 remap units box
Changing box ...
  triclinic box = (0.098469545 0.06906824 -0.18437048) to (6.7204887 6.2839461 28.607306) with tilt (2.7624616 0.011373801 0.2136093)
  triclinic box = (0.098469545 0.06906824 -0.18437048) to (6.7204887 6.2839461 28.607306) with tilt (2.7072124 0.011373801 0.2136093)
  triclinic box = (0.098469545 0.06906824 -0.18437048) to (6.7204887 6.2839461 28.607306) with tilt (2.7072124 0.011146325 0.2136093)

# Run MD

run 1000
Generated 0 of 6 mixed pair_coeff terms from geometric mixing rule
Step          Temp          PotEng         Press         f_avp[1]       f_avp[2]       f_avp[3]       f_avp[4]       f_avp[5]       f_avp[6]
0   312.02035     -660.6162       26633.099      0              0              0              0              0              0
Averages over the last 6 of 11 rows, steps 500 to 1000:
Temp PotEng Press f_avp[1] f_avp[2] f_avp[3] f_avp[4] f_avp[5] f_avp[6]
309.556 -660.931 9756.81 16267.2 12484.8 10867.9 -2158.02 5301.56 -207.676
Loop time of 43.1518 on 1 procs for 1000 steps with 104 atoms

include potential.mod
# NOTE: This script can be modified for different pair styles
# See in.elastic for more info.

# we must undefine any fix ave/* fix before using reset_timestep
if "$(is_defined(fix,avp))" then "unfix avp"
unfix avp
reset_timestep 0

# Choose potential
# pair_style	sw
# pair_coeff * * Si.sw Si

pair_style	deepmd tob14_deepmd_compress.pb
pair_coeff	* * Ca Si O H

atom_modify sort 0 0.0
#kspace_style	ewald 1.0e-6# Setup neighbor style

#neighbor 2.0 bin
neigh_modify once no every 1 delay 0 check yes

# Setup output

fix avp all ave/time  10 10 100 c_thermo_press mode vector

#min_style cg
#minimize 1.0e-15 1.0e-15 10000 10000 #设置能量最小化

thermo		100
thermo_style custom step temp pe press f_avp[1] f_avp[2] f_avp[3] f_avp[4] f_avp[5] f_avp[6]
thermo_modify norm no

# Setup MD

timestep 0.001
fix 4 all nve
fix 5 all langevin 300 300 0.01 123457

run 300
Generated 0 of 6 mixed pair_coeff terms from geometric mixing rule
Step          Temp          PotEng         Press         f_avp[1]       f_avp[2]       f_avp[3]       f_avp[4]       f_avp[5]       f_avp[6]
0   328.29637     -661.4027       7975.0004      0              0              0              0              0              0
Loop time of 13.0094 on 1 procs for 300 steps with 104 atoms

# Obtain new stress tensor

variable pxx1 equal f_avp[1]
variable pyy1 equal f_avp[2]
variable pzz1 equal f_avp[3]
variable pxy1 equal f_avp[4]
variable pxz1 equal f_avp[5]
variable pyz1 equal f_avp[6]

# Compute elastic constant from pressure tensor

variable C1neg equal 80.3218270661809
variable C2neg equal 40.2775207773959
variable C3neg equal 37.4938131355099
variable C4neg equal -8.85250367280488
variable C5neg equal 7.52028262034612
variable C6neg equal -4.68535281342979

# Reset box and simulation parameters

clear
Loaded 1 plugins from /home/zkm/anaconda3/envs/deepmd/lib/deepmd_lmp
box tilt large

The 'box' command has been removed and will be ignored

read_restart restart.equil
Reading restart file ...
  restart file = 2 Aug 2023, LAMMPS = 2 Aug 2023
  restoring atom style atomic from restart
  triclinic box = (0.098469545 0.06906824 -0.18437048) to (6.8556319 6.2839461 28.607306) with tilt (2.7624616 0.011373801 0.2136093)
Summary of lammps deepmd module ...
  >>> Info of deepmd-kit:
  installed to:       /home/zkm/anaconda3/envs/deepmd
  source:             v2.2.7
  source branch:       HEAD
  source commit:      839f4fe7
  source commit at:   2023-10-27 21:10:24 +0800
  surpport model ver.:1.1
  build variant:      cuda
  build with tf inc:  /home/zkm/anaconda3/envs/deepmd/include;/home/zkm/anaconda3/envs/deepmd/include
  build with tf lib:  /home/zkm/anaconda3/envs/deepmd/lib/libtensorflow_cc.so
  set tf intra_op_parallelism_threads: 0
  set tf inter_op_parallelism_threads: 0
  >>> Info of lammps module:
  use deepmd-kit at:  /home/zkm/anaconda3/envs/deepmd  restoring pair style deepmd from restart
  104 atoms
  read_restart CPU = 0.001 seconds
include potential.mod
# NOTE: This script can be modified for different pair styles
# See in.elastic for more info.

# we must undefine any fix ave/* fix before using reset_timestep
if "$(is_defined(fix,avp))" then "unfix avp"
reset_timestep 0

# Choose potential
# pair_style	sw
# pair_coeff * * Si.sw Si

pair_style	deepmd tob14_deepmd_compress.pb
pair_coeff	* * Ca Si O H

atom_modify sort 0 0.0
#kspace_style	ewald 1.0e-6# Setup neighbor style

#neighbor 2.0 bin
neigh_modify once no every 1 delay 0 check yes

# Setup output

fix avp all ave/time  10 10 100 c_thermo_press mode vector

#min_style cg
#minimize 1.0e-15 1.0e-15 10000 10000 #设置能量最小化

thermo		100
thermo_style custom step temp pe press f_avp[1] f_avp[2] f_avp[3] f_avp[4] f_avp[5] f_avp[6]
thermo_modify norm no

# Setup MD

timestep 0.001
fix 4 all nve
fix 5 all langevin 300 300 0.01 123457

# Positive deformation

variable delta equal 0.02*6.75716240259352
variable deltaxy equal 0.02*xy
variable deltaxz equal 0.02*xz
variable deltayz equal 0.02*yz
change_box all x delta 0 0.13514324805187 xy delta 0.0552492323085879 xz delta 0.000227476019256272 remap units box
Changing box ...
  triclinic box = (0.098469545 0.06906824 -0.18437048) to (6.9907752 6.2839461 28.607306) with tilt (2.7624616 0.011373801 0.2136093)
  triclinic box = (0.098469545 0.06906824 -0.18437048) to (6.9907752 6.2839461 28.607306) with tilt (2.8177108 0.011373801 0.2136093)
  triclinic box = (0.098469545 0.06906824 -0.18437048) to (6.9907752 6.2839461 28.607306) with tilt (2.8177108 0.011601277 0.2136093)

# Run MD

run 1000
Generated 0 of 6 mixed pair_coeff terms from geometric mixing rule
Step          Temp          PotEng         Press         f_avp[1]       f_avp[2]       f_avp[3]       f_avp[4]       f_avp[5]       f_avp[6]
0   312.02035     -660.25499     -26786.375      0              0              0              0              0              0
Averages over the last 6 of 11 rows, steps 500 to 1000:
Temp PotEng Press f_avp[1] f_avp[2] f_avp[3] f_avp[4] f_avp[5] f_avp[6]
311.606 -660.755 -11533.2 -20245.2 -4092.67 1029.43 -710.848 5097.52 -174.745
Loop time of 47.1631 on 1 procs for 1000 steps with 104 atoms

include potential.mod
# NOTE: This script can be modified for different pair styles
# See in.elastic for more info.

# we must undefine any fix ave/* fix before using reset_timestep
if "$(is_defined(fix,avp))" then "unfix avp"
unfix avp
reset_timestep 0

# Choose potential
# pair_style	sw
# pair_coeff * * Si.sw Si

pair_style	deepmd tob14_deepmd_compress.pb
pair_coeff	* * Ca Si O H

atom_modify sort 0 0.0
#kspace_style	ewald 1.0e-6# Setup neighbor style

#neighbor 2.0 bin
neigh_modify once no every 1 delay 0 check yes

# Setup output

fix avp all ave/time  10 10 100 c_thermo_press mode vector

#min_style cg
#minimize 1.0e-15 1.0e-15 10000 10000 #设置能量最小化

thermo		100
thermo_style custom step temp pe press f_avp[1] f_avp[2] f_avp[3] f_avp[4] f_avp[5] f_avp[6]
thermo_modify norm no

# Setup MD

timestep 0.001
fix 4 all nve
fix 5 all langevin 300 300 0.01 123457

run 300
Generated 0 of 6 mixed pair_coeff terms from geometric mixing rule
Step          Temp          PotEng         Press         f_avp[1]       f_avp[2]       f_avp[3]       f_avp[4]       f_avp[5]       f_avp[6]
0   327.54416     -661.17601     -10089.578      0              0              0              0              0              0
Loop time of 14.1079 on 1 procs for 300 steps with 104 atoms

# Obtain new stress tensor

variable pxx1 equal f_avp[1]
variable pyy1 equal f_avp[2]
variable pzz1 equal f_avp[3]
variable pxy1 equal f_avp[4]
variable pxz1 equal f_avp[5]
variable pyz1 equal f_avp[6]

# Compute elastic constant from pressure tensor

variable C1pos equal 93.5127558688331
variable C2pos equal 40.8400320272877
variable C3pos equal 1.88379026007461
variable C4pos equal 4.75903371175492
variable C5pos equal -5.08684299489882
variable C6pos equal -2.58539242222924

# Combine positive and negative

variable C11 equal 0.5*(80.3218270661809+93.5127558688331)
variable C21 equal 0.5*(40.2775207773959+40.8400320272877)
variable C31 equal 0.5*(37.4938131355099+1.88379026007461)
variable C41 equal 0.5*(-8.85250367280488+4.75903371175492)
variable C51 equal 0.5*(7.52028262034612+-5.08684299489882)
variable C61 equal 0.5*(-4.68535281342979+-2.58539242222924)

# Delete dir to make sure it is not reused

variable dir delete

# uyy Perturbation

variable dir equal 2
include displace.mod
# NOTE: This script should not need to be
# modified. See in.elastic for more info.
#
# Find which reference length to use

variable len0 equal 6.21487781891147

# Reset box and simulation parameters

clear
Loaded 1 plugins from /home/zkm/anaconda3/envs/deepmd/lib/deepmd_lmp
box tilt large

The 'box' command has been removed and will be ignored

read_restart restart.equil
Reading restart file ...
  restart file = 2 Aug 2023, LAMMPS = 2 Aug 2023
  restoring atom style atomic from restart
  triclinic box = (0.098469545 0.06906824 -0.18437048) to (6.8556319 6.2839461 28.607306) with tilt (2.7624616 0.011373801 0.2136093)
Summary of lammps deepmd module ...
  >>> Info of deepmd-kit:
  installed to:       /home/zkm/anaconda3/envs/deepmd
  source:             v2.2.7
  source branch:       HEAD
  source commit:      839f4fe7
  source commit at:   2023-10-27 21:10:24 +0800
  surpport model ver.:1.1
  build variant:      cuda
  build with tf inc:  /home/zkm/anaconda3/envs/deepmd/include;/home/zkm/anaconda3/envs/deepmd/include
  build with tf lib:  /home/zkm/anaconda3/envs/deepmd/lib/libtensorflow_cc.so
  set tf intra_op_parallelism_threads: 0
  set tf inter_op_parallelism_threads: 0
  >>> Info of lammps module:
  use deepmd-kit at:  /home/zkm/anaconda3/envs/deepmd  restoring pair style deepmd from restart
  104 atoms
  read_restart CPU = 0.001 seconds
include potential.mod
# NOTE: This script can be modified for different pair styles
# See in.elastic for more info.

# we must undefine any fix ave/* fix before using reset_timestep
if "$(is_defined(fix,avp))" then "unfix avp"
reset_timestep 0

# Choose potential
# pair_style	sw
# pair_coeff * * Si.sw Si

pair_style	deepmd tob14_deepmd_compress.pb
pair_coeff	* * Ca Si O H

atom_modify sort 0 0.0
#kspace_style	ewald 1.0e-6# Setup neighbor style

#neighbor 2.0 bin
neigh_modify once no every 1 delay 0 check yes

# Setup output

fix avp all ave/time  10 10 100 c_thermo_press mode vector

#min_style cg
#minimize 1.0e-15 1.0e-15 10000 10000 #设置能量最小化

thermo		100
thermo_style custom step temp pe press f_avp[1] f_avp[2] f_avp[3] f_avp[4] f_avp[5] f_avp[6]
thermo_modify norm no

# Setup MD

timestep 0.001
fix 4 all nve
fix 5 all langevin 300 300 0.01 123457

# Negative deformation

variable delta equal -0.02*6.21487781891147
variable deltaxy equal -0.02*xy
variable deltaxz equal -0.02*xz
variable deltayz equal -0.02*yz
change_box all y delta 0 -0.124297556378229 yz delta -0.00427218604691734 remap units box
Changing box ...
  triclinic box = (0.098469545 0.06906824 -0.18437048) to (6.8556319 6.1596485 28.607306) with tilt (2.7624616 0.011373801 0.2136093)
  triclinic box = (0.098469545 0.06906824 -0.18437048) to (6.8556319 6.1596485 28.607306) with tilt (2.7624616 0.011373801 0.20933712)

# Run MD

run 1000
Generated 0 of 6 mixed pair_coeff terms from geometric mixing rule
Step          Temp          PotEng         Press         f_avp[1]       f_avp[2]       f_avp[3]       f_avp[4]       f_avp[5]       f_avp[6]
0   312.02035     -660.33482      26371.552      0              0              0              0              0              0
Averages over the last 6 of 11 rows, steps 500 to 1000:
Temp PotEng Press f_avp[1] f_avp[2] f_avp[3] f_avp[4] f_avp[5] f_avp[6]
311.173 -660.843 10688.5 5571.41 25647.7 11729.2 -3712.86 5844.45 92.6834
Loop time of 46.3376 on 1 procs for 1000 steps with 104 atoms

include potential.mod
# NOTE: This script can be modified for different pair styles
# See in.elastic for more info.

# we must undefine any fix ave/* fix before using reset_timestep
if "$(is_defined(fix,avp))" then "unfix avp"
unfix avp
reset_timestep 0

# Choose potential
# pair_style	sw
# pair_coeff * * Si.sw Si

pair_style	deepmd tob14_deepmd_compress.pb
pair_coeff	* * Ca Si O H

atom_modify sort 0 0.0
#kspace_style	ewald 1.0e-6# Setup neighbor style

#neighbor 2.0 bin
neigh_modify once no every 1 delay 0 check yes

# Setup output

fix avp all ave/time  10 10 100 c_thermo_press mode vector

#min_style cg
#minimize 1.0e-15 1.0e-15 10000 10000 #设置能量最小化

thermo		100
thermo_style custom step temp pe press f_avp[1] f_avp[2] f_avp[3] f_avp[4] f_avp[5] f_avp[6]
thermo_modify norm no

# Setup MD

timestep 0.001
fix 4 all nve
fix 5 all langevin 300 300 0.01 123457

run 300
Generated 0 of 6 mixed pair_coeff terms from geometric mixing rule
Step          Temp          PotEng         Press         f_avp[1]       f_avp[2]       f_avp[3]       f_avp[4]       f_avp[5]       f_avp[6]
0   329.4573      -661.31847      9696.8649      0              0              0              0              0              0
Loop time of 14.1645 on 1 procs for 300 steps with 104 atoms

# Obtain new stress tensor

variable pxx1 equal f_avp[1]
variable pyy1 equal f_avp[2]
variable pzz1 equal f_avp[3]
variable pxy1 equal f_avp[4]
variable pxz1 equal f_avp[5]
variable pyz1 equal f_avp[6]

# Compute elastic constant from pressure tensor

variable C1neg equal 27.725302365363
variable C2neg equal 104.192602709591
variable C3neg equal 40.9850325179276
variable C4neg equal -8.70556527478773
variable C5neg equal 10.7775938756054
variable C6neg equal -8.35611166681421

# Reset box and simulation parameters

clear
Loaded 1 plugins from /home/zkm/anaconda3/envs/deepmd/lib/deepmd_lmp
box tilt large

The 'box' command has been removed and will be ignored

read_restart restart.equil
Reading restart file ...
  restart file = 2 Aug 2023, LAMMPS = 2 Aug 2023
  restoring atom style atomic from restart
  triclinic box = (0.098469545 0.06906824 -0.18437048) to (6.8556319 6.2839461 28.607306) with tilt (2.7624616 0.011373801 0.2136093)
Summary of lammps deepmd module ...
  >>> Info of deepmd-kit:
  installed to:       /home/zkm/anaconda3/envs/deepmd
  source:             v2.2.7
  source branch:       HEAD
  source commit:      839f4fe7
  source commit at:   2023-10-27 21:10:24 +0800
  surpport model ver.:1.1
  build variant:      cuda
  build with tf inc:  /home/zkm/anaconda3/envs/deepmd/include;/home/zkm/anaconda3/envs/deepmd/include
  build with tf lib:  /home/zkm/anaconda3/envs/deepmd/lib/libtensorflow_cc.so
  set tf intra_op_parallelism_threads: 0
  set tf inter_op_parallelism_threads: 0
  >>> Info of lammps module:
  use deepmd-kit at:  /home/zkm/anaconda3/envs/deepmd  restoring pair style deepmd from restart
  104 atoms
  read_restart CPU = 0.001 seconds
include potential.mod
# NOTE: This script can be modified for different pair styles
# See in.elastic for more info.

# we must undefine any fix ave/* fix before using reset_timestep
if "$(is_defined(fix,avp))" then "unfix avp"
reset_timestep 0

# Choose potential
# pair_style	sw
# pair_coeff * * Si.sw Si

pair_style	deepmd tob14_deepmd_compress.pb
pair_coeff	* * Ca Si O H

atom_modify sort 0 0.0
#kspace_style	ewald 1.0e-6# Setup neighbor style

#neighbor 2.0 bin
neigh_modify once no every 1 delay 0 check yes

# Setup output

fix avp all ave/time  10 10 100 c_thermo_press mode vector

#min_style cg
#minimize 1.0e-15 1.0e-15 10000 10000 #设置能量最小化

thermo		100
thermo_style custom step temp pe press f_avp[1] f_avp[2] f_avp[3] f_avp[4] f_avp[5] f_avp[6]
thermo_modify norm no

# Setup MD

timestep 0.001
fix 4 all nve
fix 5 all langevin 300 300 0.01 123457

# Positive deformation

variable delta equal 0.02*6.21487781891147
variable deltaxy equal 0.02*xy
variable deltaxz equal 0.02*xz
variable deltayz equal 0.02*yz
change_box all y delta 0 0.124297556378229 yz delta 0.00427218604691734 remap units box
Changing box ...
  triclinic box = (0.098469545 0.06906824 -0.18437048) to (6.8556319 6.4082436 28.607306) with tilt (2.7624616 0.011373801 0.2136093)
  triclinic box = (0.098469545 0.06906824 -0.18437048) to (6.8556319 6.4082436 28.607306) with tilt (2.7624616 0.011373801 0.21788149)

# Run MD

run 1000
Generated 0 of 6 mixed pair_coeff terms from geometric mixing rule
Step          Temp          PotEng         Press         f_avp[1]       f_avp[2]       f_avp[3]       f_avp[4]       f_avp[5]       f_avp[6]
0   312.02035     -660.56632     -26078.414      0              0              0              0              0              0
Averages over the last 6 of 11 rows, steps 500 to 1000:
Temp PotEng Press f_avp[1] f_avp[2] f_avp[3] f_avp[4] f_avp[5] f_avp[6]
310.486 -660.842 -12404.3 -11420.8 -15334 169.005 1252.52 4665.3 -484.028
Loop time of 46.4963 on 1 procs for 1000 steps with 104 atoms

include potential.mod
# NOTE: This script can be modified for different pair styles
# See in.elastic for more info.

# we must undefine any fix ave/* fix before using reset_timestep
if "$(is_defined(fix,avp))" then "unfix avp"
unfix avp
reset_timestep 0

# Choose potential
# pair_style	sw
# pair_coeff * * Si.sw Si

pair_style	deepmd tob14_deepmd_compress.pb
pair_coeff	* * Ca Si O H

atom_modify sort 0 0.0
#kspace_style	ewald 1.0e-6# Setup neighbor style

#neighbor 2.0 bin
neigh_modify once no every 1 delay 0 check yes

# Setup output

fix avp all ave/time  10 10 100 c_thermo_press mode vector

#min_style cg
#minimize 1.0e-15 1.0e-15 10000 10000 #设置能量最小化

thermo		100
thermo_style custom step temp pe press f_avp[1] f_avp[2] f_avp[3] f_avp[4] f_avp[5] f_avp[6]
thermo_modify norm no

# Setup MD

timestep 0.001
fix 4 all nve
fix 5 all langevin 300 300 0.01 123457

run 300
Generated 0 of 6 mixed pair_coeff terms from geometric mixing rule
Step          Temp          PotEng         Press         f_avp[1]       f_avp[2]       f_avp[3]       f_avp[4]       f_avp[5]       f_avp[6]
0   326.53153     -661.23651     -11675.426      0              0              0              0              0              0
Loop time of 14.2936 on 1 procs for 300 steps with 104 atoms

# Obtain new stress tensor

variable pxx1 equal f_avp[1]
variable pyy1 equal f_avp[2]
variable pzz1 equal f_avp[3]
variable pxy1 equal f_avp[4]
variable pxz1 equal f_avp[5]
variable pyz1 equal f_avp[6]

# Compute elastic constant from pressure tensor

variable C1pos equal 49.489777482067
variable C2pos equal 92.8053069863446
variable C3pos equal 1.24080944626391
variable C4pos equal 6.35296074651857
variable C5pos equal -1.8636256833184
variable C6pos equal -10.778276513633

# Combine positive and negative

variable C12 equal 0.5*(27.725302365363+49.489777482067)
variable C22 equal 0.5*(104.192602709591+92.8053069863446)
variable C32 equal 0.5*(40.9850325179276+1.24080944626391)
variable C42 equal 0.5*(-8.70556527478773+6.35296074651857)
variable C52 equal 0.5*(10.7775938756054+-1.8636256833184)
variable C62 equal 0.5*(-8.35611166681421+-10.778276513633)

# Delete dir to make sure it is not reused

variable dir delete

# uzz Perturbation

variable dir equal 3
include displace.mod
# NOTE: This script should not need to be
# modified. See in.elastic for more info.
#
# Find which reference length to use

variable len0 equal 28.791676609896

# Reset box and simulation parameters

clear
Loaded 1 plugins from /home/zkm/anaconda3/envs/deepmd/lib/deepmd_lmp
box tilt large

The 'box' command has been removed and will be ignored

read_restart restart.equil
Reading restart file ...
  restart file = 2 Aug 2023, LAMMPS = 2 Aug 2023
  restoring atom style atomic from restart
  triclinic box = (0.098469545 0.06906824 -0.18437048) to (6.8556319 6.2839461 28.607306) with tilt (2.7624616 0.011373801 0.2136093)
Summary of lammps deepmd module ...
  >>> Info of deepmd-kit:
  installed to:       /home/zkm/anaconda3/envs/deepmd
  source:             v2.2.7
  source branch:       HEAD
  source commit:      839f4fe7
  source commit at:   2023-10-27 21:10:24 +0800
  surpport model ver.:1.1
  build variant:      cuda
  build with tf inc:  /home/zkm/anaconda3/envs/deepmd/include;/home/zkm/anaconda3/envs/deepmd/include
  build with tf lib:  /home/zkm/anaconda3/envs/deepmd/lib/libtensorflow_cc.so
  set tf intra_op_parallelism_threads: 0
  set tf inter_op_parallelism_threads: 0
  >>> Info of lammps module:
  use deepmd-kit at:  /home/zkm/anaconda3/envs/deepmd  restoring pair style deepmd from restart
  104 atoms
  read_restart CPU = 0.001 seconds
include potential.mod
# NOTE: This script can be modified for different pair styles
# See in.elastic for more info.

# we must undefine any fix ave/* fix before using reset_timestep
if "$(is_defined(fix,avp))" then "unfix avp"
reset_timestep 0

# Choose potential
# pair_style	sw
# pair_coeff * * Si.sw Si

pair_style	deepmd tob14_deepmd_compress.pb
pair_coeff	* * Ca Si O H

atom_modify sort 0 0.0
#kspace_style	ewald 1.0e-6# Setup neighbor style

#neighbor 2.0 bin
neigh_modify once no every 1 delay 0 check yes

# Setup output

fix avp all ave/time  10 10 100 c_thermo_press mode vector

#min_style cg
#minimize 1.0e-15 1.0e-15 10000 10000 #设置能量最小化

thermo		100
thermo_style custom step temp pe press f_avp[1] f_avp[2] f_avp[3] f_avp[4] f_avp[5] f_avp[6]
thermo_modify norm no

# Setup MD

timestep 0.001
fix 4 all nve
fix 5 all langevin 300 300 0.01 123457

# Negative deformation

variable delta equal -0.02*28.791676609896
variable deltaxy equal -0.02*xy
variable deltaxz equal -0.02*xz
variable deltayz equal -0.02*yz
change_box all z delta 0 -0.57583353219792 remap units box
Changing box ...
  triclinic box = (0.098469545 0.06906824 -0.18437048) to (6.8556319 6.2839461 28.031473) with tilt (2.7624616 0.011373801 0.2136093)

# Run MD

run 1000
Generated 0 of 6 mixed pair_coeff terms from geometric mixing rule
Step          Temp          PotEng         Press         f_avp[1]       f_avp[2]       f_avp[3]       f_avp[4]       f_avp[5]       f_avp[6]
0   312.02035     -660.55759      26500.352      0              0              0              0              0              0
Averages over the last 6 of 11 rows, steps 500 to 1000:
Temp PotEng Press f_avp[1] f_avp[2] f_avp[3] f_avp[4] f_avp[5] f_avp[6]
311.107 -660.905 6785.79 2169.02 9607.89 19021 -2808 6089.24 464.775
Loop time of 47.8867 on 1 procs for 1000 steps with 104 atoms

include potential.mod
# NOTE: This script can be modified for different pair styles
# See in.elastic for more info.

# we must undefine any fix ave/* fix before using reset_timestep
if "$(is_defined(fix,avp))" then "unfix avp"
unfix avp
reset_timestep 0

# Choose potential
# pair_style	sw
# pair_coeff * * Si.sw Si

pair_style	deepmd tob14_deepmd_compress.pb
pair_coeff	* * Ca Si O H

atom_modify sort 0 0.0
#kspace_style	ewald 1.0e-6# Setup neighbor style

#neighbor 2.0 bin
neigh_modify once no every 1 delay 0 check yes

# Setup output

fix avp all ave/time  10 10 100 c_thermo_press mode vector

#min_style cg
#minimize 1.0e-15 1.0e-15 10000 10000 #设置能量最小化

thermo		100
thermo_style custom step temp pe press f_avp[1] f_avp[2] f_avp[3] f_avp[4] f_avp[5] f_avp[6]
thermo_modify norm no

# Setup MD

timestep 0.001
fix 4 all nve
fix 5 all langevin 300 300 0.01 123457

run 300
Generated 0 of 6 mixed pair_coeff terms from geometric mixing rule
Step          Temp          PotEng         Press         f_avp[1]       f_avp[2]       f_avp[3]       f_avp[4]       f_avp[5]       f_avp[6]
0   329.0474      -661.38379      5531.382       0              0              0              0              0              0
Loop time of 14.3422 on 1 procs for 300 steps with 104 atoms

# Obtain new stress tensor

variable pxx1 equal f_avp[1]
variable pyy1 equal f_avp[2]
variable pzz1 equal f_avp[3]
variable pxy1 equal f_avp[4]
variable pxz1 equal f_avp[5]
variable pyz1 equal f_avp[6]

# Compute elastic constant from pressure tensor

variable C1neg equal 7.06037824924195
variable C2neg equal 25.7846376177589
variable C3neg equal 79.0523634398985
variable C4neg equal -5.405958024152
variable C5neg equal 9.61812541757875
variable C6neg equal -3.81172617852093

# Reset box and simulation parameters

clear
Loaded 1 plugins from /home/zkm/anaconda3/envs/deepmd/lib/deepmd_lmp
box tilt large

The 'box' command has been removed and will be ignored

read_restart restart.equil
Reading restart file ...
  restart file = 2 Aug 2023, LAMMPS = 2 Aug 2023
  restoring atom style atomic from restart
  triclinic box = (0.098469545 0.06906824 -0.18437048) to (6.8556319 6.2839461 28.607306) with tilt (2.7624616 0.011373801 0.2136093)
Summary of lammps deepmd module ...
  >>> Info of deepmd-kit:
  installed to:       /home/zkm/anaconda3/envs/deepmd
  source:             v2.2.7
  source branch:       HEAD
  source commit:      839f4fe7
  source commit at:   2023-10-27 21:10:24 +0800
  surpport model ver.:1.1
  build variant:      cuda
  build with tf inc:  /home/zkm/anaconda3/envs/deepmd/include;/home/zkm/anaconda3/envs/deepmd/include
  build with tf lib:  /home/zkm/anaconda3/envs/deepmd/lib/libtensorflow_cc.so
  set tf intra_op_parallelism_threads: 0
  set tf inter_op_parallelism_threads: 0
  >>> Info of lammps module:
  use deepmd-kit at:  /home/zkm/anaconda3/envs/deepmd  restoring pair style deepmd from restart
  104 atoms
  read_restart CPU = 0.001 seconds
include potential.mod
# NOTE: This script can be modified for different pair styles
# See in.elastic for more info.

# we must undefine any fix ave/* fix before using reset_timestep
if "$(is_defined(fix,avp))" then "unfix avp"
reset_timestep 0

# Choose potential
# pair_style	sw
# pair_coeff * * Si.sw Si

pair_style	deepmd tob14_deepmd_compress.pb
pair_coeff	* * Ca Si O H

atom_modify sort 0 0.0
#kspace_style	ewald 1.0e-6# Setup neighbor style

#neighbor 2.0 bin
neigh_modify once no every 1 delay 0 check yes

# Setup output

fix avp all ave/time  10 10 100 c_thermo_press mode vector

#min_style cg
#minimize 1.0e-15 1.0e-15 10000 10000 #设置能量最小化

thermo		100
thermo_style custom step temp pe press f_avp[1] f_avp[2] f_avp[3] f_avp[4] f_avp[5] f_avp[6]
thermo_modify norm no

# Setup MD

timestep 0.001
fix 4 all nve
fix 5 all langevin 300 300 0.01 123457

# Positive deformation

variable delta equal 0.02*28.791676609896
variable deltaxy equal 0.02*xy
variable deltaxz equal 0.02*xz
variable deltayz equal 0.02*yz
change_box all z delta 0 0.57583353219792 remap units box
Changing box ...
  triclinic box = (0.098469545 0.06906824 -0.18437048) to (6.8556319 6.2839461 29.18314) with tilt (2.7624616 0.011373801 0.2136093)

# Run MD

run 1000
Generated 0 of 6 mixed pair_coeff terms from geometric mixing rule
Step          Temp          PotEng         Press         f_avp[1]       f_avp[2]       f_avp[3]       f_avp[4]       f_avp[5]       f_avp[6]
0   312.02035     -660.29036     -26522.644      0              0              0              0              0              0
Averages over the last 6 of 11 rows, steps 500 to 1000:
Temp PotEng Press f_avp[1] f_avp[2] f_avp[3] f_avp[4] f_avp[5] f_avp[6]
309.394 -660.875 -9239.71 -8005.81 -1581.34 -7375.77 -50.0783 4551.1 -617.682
Loop time of 49.4402 on 1 procs for 1000 steps with 104 atoms

include potential.mod
# NOTE: This script can be modified for different pair styles
# See in.elastic for more info.

# we must undefine any fix ave/* fix before using reset_timestep
if "$(is_defined(fix,avp))" then "unfix avp"
unfix avp
reset_timestep 0

# Choose potential
# pair_style	sw
# pair_coeff * * Si.sw Si

pair_style	deepmd tob14_deepmd_compress.pb
pair_coeff	* * Ca Si O H

atom_modify sort 0 0.0
#kspace_style	ewald 1.0e-6# Setup neighbor style

#neighbor 2.0 bin
neigh_modify once no every 1 delay 0 check yes

# Setup output

fix avp all ave/time  10 10 100 c_thermo_press mode vector

#min_style cg
#minimize 1.0e-15 1.0e-15 10000 10000 #设置能量最小化

thermo		100
thermo_style custom step temp pe press f_avp[1] f_avp[2] f_avp[3] f_avp[4] f_avp[5] f_avp[6]
thermo_modify norm no

# Setup MD

timestep 0.001
fix 4 all nve
fix 5 all langevin 300 300 0.01 123457

run 300
Generated 0 of 6 mixed pair_coeff terms from geometric mixing rule
Step          Temp          PotEng         Press         f_avp[1]       f_avp[2]       f_avp[3]       f_avp[4]       f_avp[5]       f_avp[6]
0   326.17406     -661.31        -8322.8552      0              0              0              0              0              0
Loop time of 14.6666 on 1 procs for 300 steps with 104 atoms

# Obtain new stress tensor

variable pxx1 equal f_avp[1]
variable pyy1 equal f_avp[2]
variable pzz1 equal f_avp[3]
variable pxy1 equal f_avp[4]
variable pxz1 equal f_avp[5]
variable pyz1 equal f_avp[6]

# Compute elastic constant from pressure tensor

variable C1pos equal 28.8495568989644
variable C2pos equal 23.0972875743089
variable C3pos equal 36.5074461863045
variable C4pos equal 8.2479099024393
variable C5pos equal -2.2131644679597
variable C6pos equal -4.52115627305738

# Combine positive and negative

variable C13 equal 0.5*(7.06037824924195+28.8495568989644)
variable C23 equal 0.5*(25.7846376177589+23.0972875743089)
variable C33 equal 0.5*(79.0523634398985+36.5074461863045)
variable C43 equal 0.5*(-5.405958024152+8.2479099024393)
variable C53 equal 0.5*(9.61812541757875+-2.2131644679597)
variable C63 equal 0.5*(-3.81172617852093+-4.52115627305738)

# Delete dir to make sure it is not reused

variable dir delete

# uyz Perturbation

variable dir equal 4
include displace.mod
# NOTE: This script should not need to be
# modified. See in.elastic for more info.
#
# Find which reference length to use

variable len0 equal 28.791676609896

# Reset box and simulation parameters

clear
Loaded 1 plugins from /home/zkm/anaconda3/envs/deepmd/lib/deepmd_lmp
box tilt large

The 'box' command has been removed and will be ignored

read_restart restart.equil
Reading restart file ...
  restart file = 2 Aug 2023, LAMMPS = 2 Aug 2023
  restoring atom style atomic from restart
  triclinic box = (0.098469545 0.06906824 -0.18437048) to (6.8556319 6.2839461 28.607306) with tilt (2.7624616 0.011373801 0.2136093)
Summary of lammps deepmd module ...
  >>> Info of deepmd-kit:
  installed to:       /home/zkm/anaconda3/envs/deepmd
  source:             v2.2.7
  source branch:       HEAD
  source commit:      839f4fe7
  source commit at:   2023-10-27 21:10:24 +0800
  surpport model ver.:1.1
  build variant:      cuda
  build with tf inc:  /home/zkm/anaconda3/envs/deepmd/include;/home/zkm/anaconda3/envs/deepmd/include
  build with tf lib:  /home/zkm/anaconda3/envs/deepmd/lib/libtensorflow_cc.so
  set tf intra_op_parallelism_threads: 0
  set tf inter_op_parallelism_threads: 0
  >>> Info of lammps module:
  use deepmd-kit at:  /home/zkm/anaconda3/envs/deepmd  restoring pair style deepmd from restart
  104 atoms
  read_restart CPU = 0.001 seconds
include potential.mod
# NOTE: This script can be modified for different pair styles
# See in.elastic for more info.

# we must undefine any fix ave/* fix before using reset_timestep
if "$(is_defined(fix,avp))" then "unfix avp"
reset_timestep 0

# Choose potential
# pair_style	sw
# pair_coeff * * Si.sw Si

pair_style	deepmd tob14_deepmd_compress.pb
pair_coeff	* * Ca Si O H

atom_modify sort 0 0.0
#kspace_style	ewald 1.0e-6# Setup neighbor style

#neighbor 2.0 bin
neigh_modify once no every 1 delay 0 check yes

# Setup output

fix avp all ave/time  10 10 100 c_thermo_press mode vector

#min_style cg
#minimize 1.0e-15 1.0e-15 10000 10000 #设置能量最小化

thermo		100
thermo_style custom step temp pe press f_avp[1] f_avp[2] f_avp[3] f_avp[4] f_avp[5] f_avp[6]
thermo_modify norm no

# Setup MD

timestep 0.001
fix 4 all nve
fix 5 all langevin 300 300 0.01 123457

# Negative deformation

variable delta equal -0.02*28.791676609896
variable deltaxy equal -0.02*xy
variable deltaxz equal -0.02*xz
variable deltayz equal -0.02*yz
change_box all yz delta -0.57583353219792 remap units box
Changing box ...
  triclinic box = (0.098469545 0.06906824 -0.18437048) to (6.8556319 6.2839461 28.607306) with tilt (2.7624616 0.011373801 -0.36222423)

# Run MD

run 1000
Generated 0 of 6 mixed pair_coeff terms from geometric mixing rule
Step          Temp          PotEng         Press         f_avp[1]       f_avp[2]       f_avp[3]       f_avp[4]       f_avp[5]       f_avp[6]
0   312.02035     -660.6351      -1439.1707      0              0              0              0              0              0
Averages over the last 6 of 11 rows, steps 500 to 1000:
Temp PotEng Press f_avp[1] f_avp[2] f_avp[3] f_avp[4] f_avp[5] f_avp[6]
310.682 -660.919 -1271.7 -3284.49 4013.07 6460.48 -1265.77 3459.74 3976.67
Loop time of 49.3477 on 1 procs for 1000 steps with 104 atoms

include potential.mod
# NOTE: This script can be modified for different pair styles
# See in.elastic for more info.

# we must undefine any fix ave/* fix before using reset_timestep
if "$(is_defined(fix,avp))" then "unfix avp"
unfix avp
reset_timestep 0

# Choose potential
# pair_style	sw
# pair_coeff * * Si.sw Si

pair_style	deepmd tob14_deepmd_compress.pb
pair_coeff	* * Ca Si O H

atom_modify sort 0 0.0
#kspace_style	ewald 1.0e-6# Setup neighbor style

#neighbor 2.0 bin
neigh_modify once no every 1 delay 0 check yes

# Setup output

fix avp all ave/time  10 10 100 c_thermo_press mode vector

#min_style cg
#minimize 1.0e-15 1.0e-15 10000 10000 #设置能量最小化

thermo		100
thermo_style custom step temp pe press f_avp[1] f_avp[2] f_avp[3] f_avp[4] f_avp[5] f_avp[6]
thermo_modify norm no

# Setup MD

timestep 0.001
fix 4 all nve
fix 5 all langevin 300 300 0.01 123457

run 300
Generated 0 of 6 mixed pair_coeff terms from geometric mixing rule
Step          Temp          PotEng         Press         f_avp[1]       f_avp[2]       f_avp[3]       f_avp[4]       f_avp[5]       f_avp[6]
0   330.68092     -661.38913     -2337.9433      0              0              0              0              0              0
Loop time of 14.7154 on 1 procs for 300 steps with 104 atoms

# Obtain new stress tensor

variable pxx1 equal f_avp[1]
variable pyy1 equal f_avp[2]
variable pzz1 equal f_avp[3]
variable pxy1 equal f_avp[4]
variable pxz1 equal f_avp[5]
variable pyz1 equal f_avp[6]

# Compute elastic constant from pressure tensor

variable C1neg equal -17.4498049682317
variable C2neg equal -5.7309189627101
variable C3neg equal 18.4454406228274
variable C4neg equal 13.7917968172498
variable C5neg equal -1.9581515980841
variable C6neg equal 0.706100282579195

# Reset box and simulation parameters

clear
Loaded 1 plugins from /home/zkm/anaconda3/envs/deepmd/lib/deepmd_lmp
box tilt large

The 'box' command has been removed and will be ignored

read_restart restart.equil
Reading restart file ...
  restart file = 2 Aug 2023, LAMMPS = 2 Aug 2023
  restoring atom style atomic from restart
  triclinic box = (0.098469545 0.06906824 -0.18437048) to (6.8556319 6.2839461 28.607306) with tilt (2.7624616 0.011373801 0.2136093)
Summary of lammps deepmd module ...
  >>> Info of deepmd-kit:
  installed to:       /home/zkm/anaconda3/envs/deepmd
  source:             v2.2.7
  source branch:       HEAD
  source commit:      839f4fe7
  source commit at:   2023-10-27 21:10:24 +0800
  surpport model ver.:1.1
  build variant:      cuda
  build with tf inc:  /home/zkm/anaconda3/envs/deepmd/include;/home/zkm/anaconda3/envs/deepmd/include
  build with tf lib:  /home/zkm/anaconda3/envs/deepmd/lib/libtensorflow_cc.so
  set tf intra_op_parallelism_threads: 0
  set tf inter_op_parallelism_threads: 0
  >>> Info of lammps module:
  use deepmd-kit at:  /home/zkm/anaconda3/envs/deepmd  restoring pair style deepmd from restart
  104 atoms
  read_restart CPU = 0.001 seconds
include potential.mod
# NOTE: This script can be modified for different pair styles
# See in.elastic for more info.

# we must undefine any fix ave/* fix before using reset_timestep
if "$(is_defined(fix,avp))" then "unfix avp"
reset_timestep 0

# Choose potential
# pair_style	sw
# pair_coeff * * Si.sw Si

pair_style	deepmd tob14_deepmd_compress.pb
pair_coeff	* * Ca Si O H

atom_modify sort 0 0.0
#kspace_style	ewald 1.0e-6# Setup neighbor style

#neighbor 2.0 bin
neigh_modify once no every 1 delay 0 check yes

# Setup output

fix avp all ave/time  10 10 100 c_thermo_press mode vector

#min_style cg
#minimize 1.0e-15 1.0e-15 10000 10000 #设置能量最小化

thermo		100
thermo_style custom step temp pe press f_avp[1] f_avp[2] f_avp[3] f_avp[4] f_avp[5] f_avp[6]
thermo_modify norm no

# Setup MD

timestep 0.001
fix 4 all nve
fix 5 all langevin 300 300 0.01 123457

# Positive deformation

variable delta equal 0.02*28.791676609896
variable deltaxy equal 0.02*xy
variable deltaxz equal 0.02*xz
variable deltayz equal 0.02*yz
change_box all yz delta 0.57583353219792 remap units box
Changing box ...
  triclinic box = (0.098469545 0.06906824 -0.18437048) to (6.8556319 6.2839461 28.607306) with tilt (2.7624616 0.011373801 0.78944283)

# Run MD

run 1000
Generated 0 of 6 mixed pair_coeff terms from geometric mixing rule
Step          Temp          PotEng         Press         f_avp[1]       f_avp[2]       f_avp[3]       f_avp[4]       f_avp[5]       f_avp[6]
0   312.02035     -660.69052     -1445.9577      0              0              0              0              0              0
Averages over the last 6 of 11 rows, steps 500 to 1000:
Temp PotEng Press f_avp[1] f_avp[2] f_avp[3] f_avp[4] f_avp[5] f_avp[6]
310.269 -660.997 -2287.42 -3798.48 3197.52 4786.14 -1194.58 6842.91 -4387.17
Loop time of 49.4367 on 1 procs for 1000 steps with 104 atoms

include potential.mod
# NOTE: This script can be modified for different pair styles
# See in.elastic for more info.

# we must undefine any fix ave/* fix before using reset_timestep
if "$(is_defined(fix,avp))" then "unfix avp"
unfix avp
reset_timestep 0

# Choose potential
# pair_style	sw
# pair_coeff * * Si.sw Si

pair_style	deepmd tob14_deepmd_compress.pb
pair_coeff	* * Ca Si O H

atom_modify sort 0 0.0
#kspace_style	ewald 1.0e-6# Setup neighbor style

#neighbor 2.0 bin
neigh_modify once no every 1 delay 0 check yes

# Setup output

fix avp all ave/time  10 10 100 c_thermo_press mode vector

#min_style cg
#minimize 1.0e-15 1.0e-15 10000 10000 #设置能量最小化

thermo		100
thermo_style custom step temp pe press f_avp[1] f_avp[2] f_avp[3] f_avp[4] f_avp[5] f_avp[6]
thermo_modify norm no

# Setup MD

timestep 0.001
fix 4 all nve
fix 5 all langevin 300 300 0.01 123457

run 300
Generated 0 of 6 mixed pair_coeff terms from geometric mixing rule
Step          Temp          PotEng         Press         f_avp[1]       f_avp[2]       f_avp[3]       f_avp[4]       f_avp[5]       f_avp[6]
0   326.26063     -661.4334      -1495.6029      0              0              0              0              0              0
Loop time of 15.0194 on 1 procs for 300 steps with 104 atoms

# Obtain new stress tensor

variable pxx1 equal f_avp[1]
variable pyy1 equal f_avp[2]
variable pzz1 equal f_avp[3]
variable pxy1 equal f_avp[4]
variable pxz1 equal f_avp[5]
variable pyz1 equal f_avp[6]

# Compute elastic constant from pressure tensor

variable C1pos equal 10.3365544460158
variable C2pos equal 0.0132305107498019
variable C3pos equal -15.5724379777781
variable C4pos equal 27.8057296380638
variable C5pos equal -15.4138397259111
variable C6pos equal 1.07702524878882

# Combine positive and negative

variable C14 equal 0.5*(-17.4498049682317+10.3365544460158)
variable C24 equal 0.5*(-5.7309189627101+0.0132305107498019)
variable C34 equal 0.5*(18.4454406228274+-15.5724379777781)
variable C44 equal 0.5*(13.7917968172498+27.8057296380638)
variable C54 equal 0.5*(-1.9581515980841+-15.4138397259111)
variable C64 equal 0.5*(0.706100282579195+1.07702524878882)

# Delete dir to make sure it is not reused

variable dir delete

# uxz Perturbation

variable dir equal 5
include displace.mod
# NOTE: This script should not need to be
# modified. See in.elastic for more info.
#
# Find which reference length to use

variable len0 equal 28.791676609896

# Reset box and simulation parameters

clear
Loaded 1 plugins from /home/zkm/anaconda3/envs/deepmd/lib/deepmd_lmp
box tilt large

The 'box' command has been removed and will be ignored

read_restart restart.equil
Reading restart file ...
  restart file = 2 Aug 2023, LAMMPS = 2 Aug 2023
  restoring atom style atomic from restart
  triclinic box = (0.098469545 0.06906824 -0.18437048) to (6.8556319 6.2839461 28.607306) with tilt (2.7624616 0.011373801 0.2136093)
Summary of lammps deepmd module ...
  >>> Info of deepmd-kit:
  installed to:       /home/zkm/anaconda3/envs/deepmd
  source:             v2.2.7
  source branch:       HEAD
  source commit:      839f4fe7
  source commit at:   2023-10-27 21:10:24 +0800
  surpport model ver.:1.1
  build variant:      cuda
  build with tf inc:  /home/zkm/anaconda3/envs/deepmd/include;/home/zkm/anaconda3/envs/deepmd/include
  build with tf lib:  /home/zkm/anaconda3/envs/deepmd/lib/libtensorflow_cc.so
  set tf intra_op_parallelism_threads: 0
  set tf inter_op_parallelism_threads: 0
  >>> Info of lammps module:
  use deepmd-kit at:  /home/zkm/anaconda3/envs/deepmd  restoring pair style deepmd from restart
  104 atoms
  read_restart CPU = 0.001 seconds
include potential.mod
# NOTE: This script can be modified for different pair styles
# See in.elastic for more info.

# we must undefine any fix ave/* fix before using reset_timestep
if "$(is_defined(fix,avp))" then "unfix avp"
reset_timestep 0

# Choose potential
# pair_style	sw
# pair_coeff * * Si.sw Si

pair_style	deepmd tob14_deepmd_compress.pb
pair_coeff	* * Ca Si O H

atom_modify sort 0 0.0
#kspace_style	ewald 1.0e-6# Setup neighbor style

#neighbor 2.0 bin
neigh_modify once no every 1 delay 0 check yes

# Setup output

fix avp all ave/time  10 10 100 c_thermo_press mode vector

#min_style cg
#minimize 1.0e-15 1.0e-15 10000 10000 #设置能量最小化

thermo		100
thermo_style custom step temp pe press f_avp[1] f_avp[2] f_avp[3] f_avp[4] f_avp[5] f_avp[6]
thermo_modify norm no

# Setup MD

timestep 0.001
fix 4 all nve
fix 5 all langevin 300 300 0.01 123457

# Negative deformation

variable delta equal -0.02*28.791676609896
variable deltaxy equal -0.02*xy
variable deltaxz equal -0.02*xz
variable deltayz equal -0.02*yz
change_box all xz delta -0.57583353219792 remap units box
Changing box ...
  triclinic box = (0.098469545 0.06906824 -0.18437048) to (6.8556319 6.2839461 28.607306) with tilt (2.7624616 -0.56445973 0.2136093)

# Run MD

run 1000
Generated 0 of 6 mixed pair_coeff terms from geometric mixing rule
Step          Temp          PotEng         Press         f_avp[1]       f_avp[2]       f_avp[3]       f_avp[4]       f_avp[5]       f_avp[6]
0   312.02035     -660.71374     -1637.977       0              0              0              0              0              0
Averages over the last 6 of 11 rows, steps 500 to 1000:
Temp PotEng Press f_avp[1] f_avp[2] f_avp[3] f_avp[4] f_avp[5] f_avp[6]
307.436 -660.928 -1313.83 -3955.8 4004.88 6652.71 -630.389 7680.46 -1437.4
Loop time of 49.8421 on 1 procs for 1000 steps with 104 atoms

include potential.mod
# NOTE: This script can be modified for different pair styles
# See in.elastic for more info.

# we must undefine any fix ave/* fix before using reset_timestep
if "$(is_defined(fix,avp))" then "unfix avp"
unfix avp
reset_timestep 0

# Choose potential
# pair_style	sw
# pair_coeff * * Si.sw Si

pair_style	deepmd tob14_deepmd_compress.pb
pair_coeff	* * Ca Si O H

atom_modify sort 0 0.0
#kspace_style	ewald 1.0e-6# Setup neighbor style

#neighbor 2.0 bin
neigh_modify once no every 1 delay 0 check yes

# Setup output

fix avp all ave/time  10 10 100 c_thermo_press mode vector

#min_style cg
#minimize 1.0e-15 1.0e-15 10000 10000 #设置能量最小化

thermo		100
thermo_style custom step temp pe press f_avp[1] f_avp[2] f_avp[3] f_avp[4] f_avp[5] f_avp[6]
thermo_modify norm no

# Setup MD

timestep 0.001
fix 4 all nve
fix 5 all langevin 300 300 0.01 123457

run 300
Generated 0 of 6 mixed pair_coeff terms from geometric mixing rule
Step          Temp          PotEng         Press         f_avp[1]       f_avp[2]       f_avp[3]       f_avp[4]       f_avp[5]       f_avp[6]
0   318.40363     -661.34342     -773.32604      0              0              0              0              0              0
Loop time of 14.9261 on 1 procs for 300 steps with 104 atoms

# Obtain new stress tensor

variable pxx1 equal f_avp[1]
variable pyy1 equal f_avp[2]
variable pzz1 equal f_avp[3]
variable pxy1 equal f_avp[4]
variable pxz1 equal f_avp[5]
variable pyz1 equal f_avp[6]

# Compute elastic constant from pressure tensor

variable C1neg equal -15.8824017164566
variable C2neg equal 1.74692153013275
variable C3neg equal 26.8682323749674
variable C4neg equal -14.2679461055388
variable C5neg equal 15.3135823198351
variable C6neg equal 3.12534589249933

# Reset box and simulation parameters

clear
Loaded 1 plugins from /home/zkm/anaconda3/envs/deepmd/lib/deepmd_lmp
box tilt large

The 'box' command has been removed and will be ignored

read_restart restart.equil
Reading restart file ...
  restart file = 2 Aug 2023, LAMMPS = 2 Aug 2023
  restoring atom style atomic from restart
  triclinic box = (0.098469545 0.06906824 -0.18437048) to (6.8556319 6.2839461 28.607306) with tilt (2.7624616 0.011373801 0.2136093)
Summary of lammps deepmd module ...
  >>> Info of deepmd-kit:
  installed to:       /home/zkm/anaconda3/envs/deepmd
  source:             v2.2.7
  source branch:       HEAD
  source commit:      839f4fe7
  source commit at:   2023-10-27 21:10:24 +0800
  surpport model ver.:1.1
  build variant:      cuda
  build with tf inc:  /home/zkm/anaconda3/envs/deepmd/include;/home/zkm/anaconda3/envs/deepmd/include
  build with tf lib:  /home/zkm/anaconda3/envs/deepmd/lib/libtensorflow_cc.so
  set tf intra_op_parallelism_threads: 0
  set tf inter_op_parallelism_threads: 0
  >>> Info of lammps module:
  use deepmd-kit at:  /home/zkm/anaconda3/envs/deepmd  restoring pair style deepmd from restart
  104 atoms
  read_restart CPU = 0.001 seconds
include potential.mod
# NOTE: This script can be modified for different pair styles
# See in.elastic for more info.

# we must undefine any fix ave/* fix before using reset_timestep
if "$(is_defined(fix,avp))" then "unfix avp"
reset_timestep 0

# Choose potential
# pair_style	sw
# pair_coeff * * Si.sw Si

pair_style	deepmd tob14_deepmd_compress.pb
pair_coeff	* * Ca Si O H

atom_modify sort 0 0.0
#kspace_style	ewald 1.0e-6# Setup neighbor style

#neighbor 2.0 bin
neigh_modify once no every 1 delay 0 check yes

# Setup output

fix avp all ave/time  10 10 100 c_thermo_press mode vector

#min_style cg
#minimize 1.0e-15 1.0e-15 10000 10000 #设置能量最小化

thermo		100
thermo_style custom step temp pe press f_avp[1] f_avp[2] f_avp[3] f_avp[4] f_avp[5] f_avp[6]
thermo_modify norm no

# Setup MD

timestep 0.001
fix 4 all nve
fix 5 all langevin 300 300 0.01 123457

# Positive deformation

variable delta equal 0.02*28.791676609896
variable deltaxy equal 0.02*xy
variable deltaxz equal 0.02*xz
variable deltayz equal 0.02*yz
change_box all xz delta 0.57583353219792 remap units box
Changing box ...
  triclinic box = (0.098469545 0.06906824 -0.18437048) to (6.8556319 6.2839461 28.607306) with tilt (2.7624616 0.58720733 0.2136093)

# Run MD

run 1000
Generated 0 of 6 mixed pair_coeff terms from geometric mixing rule
Step          Temp          PotEng         Press         f_avp[1]       f_avp[2]       f_avp[3]       f_avp[4]       f_avp[5]       f_avp[6]
0   312.02035     -660.61363     -1331.9187      0              0              0              0              0              0
Averages over the last 6 of 11 rows, steps 500 to 1000:
Temp PotEng Press f_avp[1] f_avp[2] f_avp[3] f_avp[4] f_avp[5] f_avp[6]
311.726 -661.051 -2236.22 -3413.38 3211.33 4432.96 -1620.93 2534.13 1589.64
Loop time of 49.8898 on 1 procs for 1000 steps with 104 atoms

include potential.mod
# NOTE: This script can be modified for different pair styles
# See in.elastic for more info.

# we must undefine any fix ave/* fix before using reset_timestep
if "$(is_defined(fix,avp))" then "unfix avp"
unfix avp
reset_timestep 0

# Choose potential
# pair_style	sw
# pair_coeff * * Si.sw Si

pair_style	deepmd tob14_deepmd_compress.pb
pair_coeff	* * Ca Si O H

atom_modify sort 0 0.0
#kspace_style	ewald 1.0e-6# Setup neighbor style

#neighbor 2.0 bin
neigh_modify once no every 1 delay 0 check yes

# Setup output

fix avp all ave/time  10 10 100 c_thermo_press mode vector

#min_style cg
#minimize 1.0e-15 1.0e-15 10000 10000 #设置能量最小化

thermo		100
thermo_style custom step temp pe press f_avp[1] f_avp[2] f_avp[3] f_avp[4] f_avp[5] f_avp[6]
thermo_modify norm no

# Setup MD

timestep 0.001
fix 4 all nve
fix 5 all langevin 300 300 0.01 123457

run 300
Generated 0 of 6 mixed pair_coeff terms from geometric mixing rule
Step          Temp          PotEng         Press         f_avp[1]       f_avp[2]       f_avp[3]       f_avp[4]       f_avp[5]       f_avp[6]
0   327.53816     -661.48024     -2368.3197      0              0              0              0              0              0
Loop time of 14.8623 on 1 procs for 300 steps with 104 atoms

# Obtain new stress tensor

variable pxx1 equal f_avp[1]
variable pyy1 equal f_avp[2]
variable pzz1 equal f_avp[3]
variable pxy1 equal f_avp[4]
variable pxz1 equal f_avp[5]
variable pyz1 equal f_avp[6]

# Compute elastic constant from pressure tensor

variable C1pos equal 14.620945817076
variable C2pos equal 4.71590816988245
variable C3pos equal -10.1647300778263
variable C4pos equal -1.143367445046
variable C5pos equal 7.26676738157345
variable C6pos equal 1.24636279019554

# Combine positive and negative

variable C15 equal 0.5*(-15.8824017164566+14.620945817076)
variable C25 equal 0.5*(1.74692153013275+4.71590816988245)
variable C35 equal 0.5*(26.8682323749674+-10.1647300778263)
variable C45 equal 0.5*(-14.2679461055388+-1.143367445046)
variable C55 equal 0.5*(15.3135823198351+7.26676738157345)
variable C65 equal 0.5*(3.12534589249933+1.24636279019554)

# Delete dir to make sure it is not reused

variable dir delete

# uxy Perturbation

variable dir equal 6
include displace.mod
# NOTE: This script should not need to be
# modified. See in.elastic for more info.
#
# Find which reference length to use

variable len0 equal 6.21487781891147

# Reset box and simulation parameters

clear
Loaded 1 plugins from /home/zkm/anaconda3/envs/deepmd/lib/deepmd_lmp
box tilt large

The 'box' command has been removed and will be ignored

read_restart restart.equil
Reading restart file ...
  restart file = 2 Aug 2023, LAMMPS = 2 Aug 2023
  restoring atom style atomic from restart
  triclinic box = (0.098469545 0.06906824 -0.18437048) to (6.8556319 6.2839461 28.607306) with tilt (2.7624616 0.011373801 0.2136093)
Summary of lammps deepmd module ...
  >>> Info of deepmd-kit:
  installed to:       /home/zkm/anaconda3/envs/deepmd
  source:             v2.2.7
  source branch:       HEAD
  source commit:      839f4fe7
  source commit at:   2023-10-27 21:10:24 +0800
  surpport model ver.:1.1
  build variant:      cuda
  build with tf inc:  /home/zkm/anaconda3/envs/deepmd/include;/home/zkm/anaconda3/envs/deepmd/include
  build with tf lib:  /home/zkm/anaconda3/envs/deepmd/lib/libtensorflow_cc.so
  set tf intra_op_parallelism_threads: 0
  set tf inter_op_parallelism_threads: 0
  >>> Info of lammps module:
  use deepmd-kit at:  /home/zkm/anaconda3/envs/deepmd  restoring pair style deepmd from restart
  104 atoms
  read_restart CPU = 0.001 seconds
include potential.mod
# NOTE: This script can be modified for different pair styles
# See in.elastic for more info.

# we must undefine any fix ave/* fix before using reset_timestep
if "$(is_defined(fix,avp))" then "unfix avp"
reset_timestep 0

# Choose potential
# pair_style	sw
# pair_coeff * * Si.sw Si

pair_style	deepmd tob14_deepmd_compress.pb
pair_coeff	* * Ca Si O H

atom_modify sort 0 0.0
#kspace_style	ewald 1.0e-6# Setup neighbor style

#neighbor 2.0 bin
neigh_modify once no every 1 delay 0 check yes

# Setup output

fix avp all ave/time  10 10 100 c_thermo_press mode vector

#min_style cg
#minimize 1.0e-15 1.0e-15 10000 10000 #设置能量最小化

thermo		100
thermo_style custom step temp pe press f_avp[1] f_avp[2] f_avp[3] f_avp[4] f_avp[5] f_avp[6]
thermo_modify norm no

# Setup MD

timestep 0.001
fix 4 all nve
fix 5 all langevin 300 300 0.01 123457

# Negative deformation

variable delta equal -0.02*6.21487781891147
variable deltaxy equal -0.02*xy
variable deltaxz equal -0.02*xz
variable deltayz equal -0.02*yz
change_box all xy delta -0.124297556378229 remap units box
Changing box ...
  triclinic box = (0.098469545 0.06906824 -0.18437048) to (6.8556319 6.2839461 28.607306) with tilt (2.6381641 0.011373801 0.2136093)

# Run MD

run 1000
Generated 0 of 6 mixed pair_coeff terms from geometric mixing rule
Step          Temp          PotEng         Press         f_avp[1]       f_avp[2]       f_avp[3]       f_avp[4]       f_avp[5]       f_avp[6]
0   312.02035     -660.62179     -2225.0933      0              0              0              0              0              0
Averages over the last 6 of 11 rows, steps 500 to 1000:
Temp PotEng Press f_avp[1] f_avp[2] f_avp[3] f_avp[4] f_avp[5] f_avp[6]
310.835 -661.038 -3419.51 -4299.99 1495.51 3900.24 5158.91 5566.63 138.847
Loop time of 49.6253 on 1 procs for 1000 steps with 104 atoms

include potential.mod
# NOTE: This script can be modified for different pair styles
# See in.elastic for more info.

# we must undefine any fix ave/* fix before using reset_timestep
if "$(is_defined(fix,avp))" then "unfix avp"
unfix avp
reset_timestep 0

# Choose potential
# pair_style	sw
# pair_coeff * * Si.sw Si

pair_style	deepmd tob14_deepmd_compress.pb
pair_coeff	* * Ca Si O H

atom_modify sort 0 0.0
#kspace_style	ewald 1.0e-6# Setup neighbor style

#neighbor 2.0 bin
neigh_modify once no every 1 delay 0 check yes

# Setup output

fix avp all ave/time  10 10 100 c_thermo_press mode vector

#min_style cg
#minimize 1.0e-15 1.0e-15 10000 10000 #设置能量最小化

thermo		100
thermo_style custom step temp pe press f_avp[1] f_avp[2] f_avp[3] f_avp[4] f_avp[5] f_avp[6]
thermo_modify norm no

# Setup MD

timestep 0.001
fix 4 all nve
fix 5 all langevin 300 300 0.01 123457

run 300
Generated 0 of 6 mixed pair_coeff terms from geometric mixing rule
Step          Temp          PotEng         Press         f_avp[1]       f_avp[2]       f_avp[3]       f_avp[4]       f_avp[5]       f_avp[6]
0   327.87046     -661.48296     -3044.9292      0              0              0              0              0              0
Loop time of 14.8458 on 1 procs for 300 steps with 104 atoms

# Obtain new stress tensor

variable pxx1 equal f_avp[1]
variable pyy1 equal f_avp[2]
variable pzz1 equal f_avp[3]
variable pxy1 equal f_avp[4]
variable pxz1 equal f_avp[5]
variable pyz1 equal f_avp[6]

# Compute elastic constant from pressure tensor

variable C1neg equal -16.7205748652249
variable C2neg equal -11.4165429322352
variable C3neg equal 8.81823214744123
variable C4neg equal -6.81655030755857
variable C5neg equal 6.78252321373167
variable C6neg equal 32.0879396642669

# Reset box and simulation parameters

clear
Loaded 1 plugins from /home/zkm/anaconda3/envs/deepmd/lib/deepmd_lmp
box tilt large

The 'box' command has been removed and will be ignored

read_restart restart.equil
Reading restart file ...
  restart file = 2 Aug 2023, LAMMPS = 2 Aug 2023
  restoring atom style atomic from restart
  triclinic box = (0.098469545 0.06906824 -0.18437048) to (6.8556319 6.2839461 28.607306) with tilt (2.7624616 0.011373801 0.2136093)
Summary of lammps deepmd module ...
  >>> Info of deepmd-kit:
  installed to:       /home/zkm/anaconda3/envs/deepmd
  source:             v2.2.7
  source branch:       HEAD
  source commit:      839f4fe7
  source commit at:   2023-10-27 21:10:24 +0800
  surpport model ver.:1.1
  build variant:      cuda
  build with tf inc:  /home/zkm/anaconda3/envs/deepmd/include;/home/zkm/anaconda3/envs/deepmd/include
  build with tf lib:  /home/zkm/anaconda3/envs/deepmd/lib/libtensorflow_cc.so
  set tf intra_op_parallelism_threads: 0
  set tf inter_op_parallelism_threads: 0
  >>> Info of lammps module:
  use deepmd-kit at:  /home/zkm/anaconda3/envs/deepmd  restoring pair style deepmd from restart
  104 atoms
  read_restart CPU = 0.001 seconds
include potential.mod
# NOTE: This script can be modified for different pair styles
# See in.elastic for more info.

# we must undefine any fix ave/* fix before using reset_timestep
if "$(is_defined(fix,avp))" then "unfix avp"
reset_timestep 0

# Choose potential
# pair_style	sw
# pair_coeff * * Si.sw Si

pair_style	deepmd tob14_deepmd_compress.pb
pair_coeff	* * Ca Si O H

atom_modify sort 0 0.0
#kspace_style	ewald 1.0e-6# Setup neighbor style

#neighbor 2.0 bin
neigh_modify once no every 1 delay 0 check yes

# Setup output

fix avp all ave/time  10 10 100 c_thermo_press mode vector

#min_style cg
#minimize 1.0e-15 1.0e-15 10000 10000 #设置能量最小化

thermo		100
thermo_style custom step temp pe press f_avp[1] f_avp[2] f_avp[3] f_avp[4] f_avp[5] f_avp[6]
thermo_modify norm no

# Setup MD

timestep 0.001
fix 4 all nve
fix 5 all langevin 300 300 0.01 123457

# Positive deformation

variable delta equal 0.02*6.21487781891147
variable deltaxy equal 0.02*xy
variable deltaxz equal 0.02*xz
variable deltayz equal 0.02*yz
change_box all xy delta 0.124297556378229 remap units box
Changing box ...
  triclinic box = (0.098469545 0.06906824 -0.18437048) to (6.8556319 6.2839461 28.607306) with tilt (2.8867592 0.011373801 0.2136093)

# Run MD

run 1000
Generated 0 of 6 mixed pair_coeff terms from geometric mixing rule
Step          Temp          PotEng         Press         f_avp[1]       f_avp[2]       f_avp[3]       f_avp[4]       f_avp[5]       f_avp[6]
0   312.02035     -660.67723     -587.73663      0              0              0              0              0              0
Averages over the last 6 of 11 rows, steps 500 to 1000:
Temp PotEng Press f_avp[1] f_avp[2] f_avp[3] f_avp[4] f_avp[5] f_avp[6]
310.843 -660.872 -496.67 -3105.57 6104.93 6887.48 -7426.44 4822.97 -168.208
Loop time of 47.347 on 1 procs for 1000 steps with 104 atoms

include potential.mod
# NOTE: This script can be modified for different pair styles
# See in.elastic for more info.

# we must undefine any fix ave/* fix before using reset_timestep
if "$(is_defined(fix,avp))" then "unfix avp"
unfix avp
reset_timestep 0

# Choose potential
# pair_style	sw
# pair_coeff * * Si.sw Si

pair_style	deepmd tob14_deepmd_compress.pb
pair_coeff	* * Ca Si O H

atom_modify sort 0 0.0
#kspace_style	ewald 1.0e-6# Setup neighbor style

#neighbor 2.0 bin
neigh_modify once no every 1 delay 0 check yes

# Setup output

fix avp all ave/time  10 10 100 c_thermo_press mode vector

#min_style cg
#minimize 1.0e-15 1.0e-15 10000 10000 #设置能量最小化

thermo		100
thermo_style custom step temp pe press f_avp[1] f_avp[2] f_avp[3] f_avp[4] f_avp[5] f_avp[6]
thermo_modify norm no

# Setup MD

timestep 0.001
fix 4 all nve
fix 5 all langevin 300 300 0.01 123457

run 300
Generated 0 of 6 mixed pair_coeff terms from geometric mixing rule
Step          Temp          PotEng         Press         f_avp[1]       f_avp[2]       f_avp[3]       f_avp[4]       f_avp[5]       f_avp[6]
0   326.78057     -661.311       -317.27355      0              0              0              0              0              0
Loop time of 14.405 on 1 procs for 300 steps with 104 atoms

# Obtain new stress tensor

variable pxx1 equal f_avp[1]
variable pyy1 equal f_avp[2]
variable pzz1 equal f_avp[3]
variable pxy1 equal f_avp[4]
variable pxz1 equal f_avp[5]
variable pyz1 equal f_avp[6]

# Compute elastic constant from pressure tensor

variable C1pos equal 9.62478445807763
variable C2pos equal -8.70971842710818
variable C3pos equal -27.6398717218559
variable C4pos equal 8.14001840123478
variable C5pos equal -5.39618085740317
variable C6pos equal 29.1574745030304

# Combine positive and negative

variable C16 equal 0.5*(-16.7205748652249+9.62478445807763)
variable C26 equal 0.5*(-11.4165429322352+-8.70971842710818)
variable C36 equal 0.5*(8.81823214744123+-27.6398717218559)
variable C46 equal 0.5*(-6.81655030755857+8.14001840123478)
variable C56 equal 0.5*(6.78252321373167+-5.39618085740317)
variable C66 equal 0.5*(32.0879396642669+29.1574745030304)

# Delete dir to make sure it is not reused

variable dir delete

# Output final values

variable C11all equal 86.917291467507
variable C22all equal 98.4989548479678
variable C33all equal 57.7799048131015

variable C12all equal 0.5*(38.607539923715+40.5587764023418)
variable C13all equal 0.5*(17.9549675741032+19.6888016977923)
variable C23all equal 0.5*(24.4409625960339+21.1129209820958)

variable C44all equal 20.7987632276568
variable C55all equal 11.2901748507043
variable C66all equal 30.6227070836486

variable C14all equal 0.5*(-3.55662526110795+-2.04673498052498)
variable C15all equal 0.5*(-0.6307279496903+1.21671981272365)
variable C16all equal 0.5*(-3.54789520357364+-3.63537261782951)

variable C24all equal 0.5*(-2.85884422598015+-1.17630226413458)
variable C25all equal 0.5*(3.2314148500076+4.4569840961435)
variable C26all equal 0.5*(-10.0631306796717+-9.56719409022361)

variable C34all equal 0.5*(1.43650132252465+1.42097593914365)
variable C35all equal 0.5*(8.35175114857055+3.70248047480952)
variable C36all equal 0.5*(-9.41081978720733+-4.16644122578916)

variable C45all equal 0.5*(-7.7056567752924+-8.6859956619976)
variable C46all equal 0.5*(0.661734046838105+0.891562765684007)
variable C56all equal 0.5*(0.69317117816425+2.18585434134743)

print "========================================="
=========================================
print "Components of the Elastic Constant Tensor"
Components of the Elastic Constant Tensor
print "========================================="
=========================================

Elastic Constant C11all = 86.917291467507 GPa
Elastic Constant C22all = 98.4989548479678 GPa
Elastic Constant C33all = 57.7799048131015 GPa

Elastic Constant C12all = 39.5831581630284 GPa
Elastic Constant C13all = 18.8218846359478 GPa
Elastic Constant C23all = 22.7769417890648 GPa

Elastic Constant C44all = 20.7987632276568 GPa
Elastic Constant C55all = 11.2901748507043 GPa
Elastic Constant C66all = 30.6227070836486 GPa

Elastic Constant C14all = -2.80168012081647 GPa
Elastic Constant C15all = 0.292995931516675 GPa
Elastic Constant C16all = -3.59163391070158 GPa

Elastic Constant C24all = -2.01757324505737 GPa
Elastic Constant C25all = 3.84419947307555 GPa
Elastic Constant C26all = -9.81516238494766 GPa

Elastic Constant C34all = 1.42873863083415 GPa
Elastic Constant C35all = 6.02711581169003 GPa
Elastic Constant C36all = -6.78863050649825 GPa

Elastic Constant C45all = -8.195826218645 GPa
Elastic Constant C46all = 0.776648406261056 GPa
Elastic Constant C56all = 1.43951275975584 GPa

print " "

print "Cij tensor matrix"
Cij tensor matrix
print " "

write_restart restart2
System init for write_restart ...
Generated 0 of 6 mixed pair_coeff terms from geometric mixing rule
