LAMMPS (29 Sep 2021 - Update 2)
# Compute elastic constant tensor for a crystal at finite temperature
#
# WARNING: This script attempts to measure small differences in
# statistical averages generated by finite temperature MD simulations.
# This creates many more opportunities for errors to occur, compared
# to the zero temperature version provided in examples/ELASTIC.
# Hence, it is always a good idea to start with the zero temperature
# calculation, before attempting to use this script.
#
# Written by Aidan Thompson (Sandia, athomps@sandia.gov)
#
#  This script uses the following three include files.
#
#   init.mod      (must be modified for different crystal structures)
# 	       	  Define units, MD parameters, deformation parameters,
#		  and initial configuration of the atoms and simulation cell.
#
#
#   potential.mod    (must be modified for different pair styles)
# 		     Define pair style and other attributes
#		     not stored in restart file
#
#
#   displace.mod    (displace.mod should not need to be modified)
# 		    Perform positive and negative box displacements
# 		    It uses the resultant changes
#		    in stress to compute one
# 		    row of the elastic stiffness tensor
#
#		    Inputs variables:
#		    	   dir = the Voigt deformation component
#		    		    (1,2,3,4,5,6)
#		    Global constants:
#       	    	   up = the deformation magnitude (strain units)
#       		   cfac = conversion from LAMMPS pressure units to
#               	   output units for elastic constants
#
#
#  To run this on a different system, it should only be necessary to
#  modify the files init.mod and potential.mod. In order to calculate
#  the elastic constants correctly, care must be taken to specify
#  the correct units in init.mod (units, cfac and cunits). It is also
#  important to verify that the MD sampling of stress components
#  is generating accurate statistical averages.
#  One indication of this is that the elastic constants are insensitive
#  check for finite size effects.
#

# include init.mod

# NOTE: This script can be modified for different atomic structures,
# units, etc. See in.elastic for more info.
#

# Define the finite deformation size. Try several values of this
# variable to verify that results do not depend on it.
variable up equal 2.0e-2

# real units, elastic constants in GPa
units		metal
atom_style atomic
variable cfac equal 1.0e-4
variable cunits string GPa

# Define MD parameters
variable nevery equal 10                  # sampling interval
variable nrepeat equal 10                 # number of samples
variable nfreq equal 10*10
variable nthermo equal 100
variable nequil equal 10*100
variable nrun equal 3*100
variable temp equal 300                   # temperature of initial sample
variable timestep equal 0.001             # timestep
variable adiabatic equal 2                # adiabatic (1) or isothermal (2)
variable tdamp equal 0.01                 # time constant for thermostat
variable seed equal 123457                # seed for thermostat

# generate the box and atom positions using a diamond lattice
variable a equal 5.431

boundary	p p p
newton off

box tilt large
read_data tob11_ref_deepmd.data
Reading data file ...
  triclinic box = (0.0000000 0.0000000 0.0000000) to (6.8037000 6.1848150 22.405446) with tilt (2.6646871 0.29402869 -0.26981789)
  reading atoms ...
  88 atoms

pair_style	nequip
pair_coeff	* * tob11_l3-deployed.pth Ca H O Si
mass            1 40.079800
mass            4 28.08500
mass            3 15.9994
mass            2 1.00794

change_box all triclinic
Changing box ...
  triclinic box = (0.0000000 0.0000000 0.0000000) to (6.8037000 6.1848150 22.405446) with tilt (2.6646871 0.29402869 -0.26981789)

velocity	all create 300 87287

thermo 100
min_style cg
minimize 1.0e-15 1.0e-15 100000 100000 #设置能量最小化
  update every 1 steps, delay 0 steps, check yes
Step Temp E_pair E_mol TotEng Press
0          300   -571.49316            0   -568.11947     20949.29
Loop time of 113.253 on 1 procs for 204 steps with 88 atoms

Minimization stats:
  Stopping criterion = energy tolerance
  Energy initial, next-to-last, final =
  Force two-norm initial, final = 16.218635 0.084514138
  Force max component initial, final = 3.7823689 0.018306071
  Final line search alpha, max atom move = 1.0000000 0.018306071
  Iterations, force evaluations = 204 408

thermo_style  custom step temp press etotal lx ly lz xy yz xz pxx pyy pzz

#timestep 0.0001

#fix 456 all nve
#fix 567 all langevin 300.0 300.0 0.1 12345

#run 5000

#unfix 456
#unfix 567
fix 123 all npt temp 300 300 1 tri 1.0 1.0 1
run 10000
Step Temp Press TotEng Lx Ly Lz Xy Yz Xz Pxx Pyy Pzz
204          300    11123.565   -574.61801       6.8037     6.184815    22.405446    2.6646871  -0.26981789   0.29402869    5319.9476    15393.581    12657.168
Averages over the last 51 of 102 rows, steps 5300 to 10204:
Temp Press TotEng Lx Ly Lz Xy Yz Xz Pxx Pyy Pzz
305.898 465.506 -571.152 6.85354 6.24083 22.6757 2.8243 0.0187771 0.0802523 676.924 1252.67 -533.073
Loop time of 2896.77 on 1 procs for 10000 steps with 88 atoms

unfix 123

# Compute initial state

variable thermostat equal 0
include potential.mod
# NOTE: This script can be modified for different pair styles
# See in.elastic for more info.

# we must undefine any fix ave/* fix before using reset_timestep
if "$(is_defined(fix,avp))" then "unfix avp"
reset_timestep 0

newton off

# Choose potential
# pair_style	sw
# pair_coeff * * Si.sw Si
pair_style	nequip
pair_coeff	* * tob11_l3-deployed.pth Ca H O Si

atom_modify sort 0 0.0
#kspace_style	ewald 1.0e-6# Setup neighbor style

neighbor 2.0 bin
neigh_modify once no every 1 delay 0 check yes

# Setup output

fix avp all ave/time  10 10 100 c_thermo_press mode vector

#min_style cg
#minimize 1.0e-15 1.0e-15 100000 100000 #设置能量最小化

thermo		100
thermo_style custom step temp pe press f_avp[1] f_avp[2] f_avp[3] f_avp[4] f_avp[5] f_avp[6]
thermo_modify norm no

# Setup MD

timestep 0.001
fix 4 all nve

run 1000
Step Temp PotEng Press f_avp[1] f_avp[2] f_avp[3] f_avp[4] f_avp[5] f_avp[6]
0    304.91905   -574.78271    3242.1677            0            0            0            0            0            0
Averages over the last 6 of 11 rows, steps 500 to 1000:
Temp PotEng Press f_avp[1] f_avp[2] f_avp[3] f_avp[4] f_avp[5] f_avp[6]
278.795 -574.478 6271.84 12472.2 -4894.05 5007.21 -1730.85 -2311.71 -423.331
Loop time of 262.869 on 1 procs for 1000 steps with 88 atoms

variable thermostat equal 1

print 1
1

include potential.mod
# NOTE: This script can be modified for different pair styles
# See in.elastic for more info.

# we must undefine any fix ave/* fix before using reset_timestep
if "$(is_defined(fix,avp))" then "unfix avp"
unfix avp
reset_timestep 0

newton off

# Choose potential
# pair_style	sw
# pair_coeff * * Si.sw Si
pair_style	nequip
pair_coeff	* * tob11_l3-deployed.pth Ca H O Si

atom_modify sort 0 0.0
#kspace_style	ewald 1.0e-6# Setup neighbor style

neighbor 2.0 bin
neigh_modify once no every 1 delay 0 check yes

# Setup output

fix avp all ave/time  10 10 100 c_thermo_press mode vector

#min_style cg
#minimize 1.0e-15 1.0e-15 100000 100000 #设置能量最小化

thermo		100
thermo_style custom step temp pe press f_avp[1] f_avp[2] f_avp[3] f_avp[4] f_avp[5] f_avp[6]
thermo_modify norm no

# Setup MD

timestep 0.001
fix 4 all nve
fix 5 all langevin 300 300 0.01 123457

run 300
Step Temp PotEng Press f_avp[1] f_avp[2] f_avp[3] f_avp[4] f_avp[5] f_avp[6]
0    274.16642   -574.41174    16825.945            0            0            0            0            0            0
Loop time of 82.2572 on 1 procs for 300 steps with 88 atoms

variable pxx0 equal f_avp[1]
variable pyy0 equal f_avp[2]
variable pzz0 equal f_avp[3]
variable pxy0 equal f_avp[4]
variable pxz0 equal f_avp[5]
variable pyz0 equal f_avp[6]

variable tmp equal lx
variable lx0 equal 6.69869865883813
variable tmp equal ly
variable ly0 equal 6.31888381027747
variable tmp equal lz
variable lz0 equal 22.5384426452898

# These formulas define the derivatives w.r.t. strain components
# Constants uses $, variables use v_
variable d1 equal -(v_pxx1-20286.4395292476)/(v_delta/v_len0)*0.0001
variable d2 equal -(v_pyy1--5546.20083479102)/(v_delta/v_len0)*0.0001
variable d3 equal -(v_pzz1-5741.33312474155)/(v_delta/v_len0)*0.0001
variable d4 equal -(v_pyz1--3125.33669790163)/(v_delta/v_len0)*0.0001
variable d5 equal -(v_pxz1--4871.95074624504)/(v_delta/v_len0)*0.0001
variable d6 equal -(v_pxy1--6339.42117019902)/(v_delta/v_len0)*0.0001

# Write restart
write_restart restart.equil
System init for write_restart ...

# uxx Perturbation

variable dir equal 1
include displace.mod
# NOTE: This script should not need to be
# modified. See in.elastic for more info.
#
# Find which reference length to use

variable len0 equal 6.69869865883813

# Reset box and simulation parameters

clear
box tilt large
read_restart restart.equil
Reading restart file ...
  restart file = 29 Sep 2021, LAMMPS = 29 Sep 2021
  restoring atom style atomic from restart
  triclinic box = (0.052500671 -0.067034418 -0.066498144) to (6.7511993 6.2518494 22.471945) with tilt (2.7531537 0.41001667 0.18248192)
  pair style nequip stores no restart info
  88 atoms
  read_restart CPU = 0.000 seconds
include potential.mod
# NOTE: This script can be modified for different pair styles
# See in.elastic for more info.

# we must undefine any fix ave/* fix before using reset_timestep
if "$(is_defined(fix,avp))" then "unfix avp"
reset_timestep 0

newton off

# Choose potential
# pair_style	sw
# pair_coeff * * Si.sw Si
pair_style	nequip
pair_coeff	* * tob11_l3-deployed.pth Ca H O Si

atom_modify sort 0 0.0
#kspace_style	ewald 1.0e-6# Setup neighbor style

neighbor 2.0 bin
neigh_modify once no every 1 delay 0 check yes

# Setup output

fix avp all ave/time  10 10 100 c_thermo_press mode vector

#min_style cg
#minimize 1.0e-15 1.0e-15 100000 100000 #设置能量最小化

thermo		100
thermo_style custom step temp pe press f_avp[1] f_avp[2] f_avp[3] f_avp[4] f_avp[5] f_avp[6]
thermo_modify norm no

# Setup MD

timestep 0.001
fix 4 all nve
fix 5 all langevin 300 300 0.01 123457

# Negative deformation

variable delta equal -0.02*6.69869865883813
variable deltaxy equal -0.02*xy
variable deltaxz equal -0.02*xz
variable deltayz equal -0.02*yz
change_box all x delta 0 -0.133973973176763 xy delta -0.0550630742420238 xz delta -0.00820033334967695 remap units box
Changing box ...
  triclinic box = (0.052500671 -0.067034418 -0.066498144) to (6.6172254 6.2518494 22.471945) with tilt (2.7531537 0.41001667 0.18248192)
  triclinic box = (0.052500671 -0.067034418 -0.066498144) to (6.6172254 6.2518494 22.471945) with tilt (2.6980906 0.41001667 0.18248192)
  triclinic box = (0.052500671 -0.067034418 -0.066498144) to (6.6172254 6.2518494 22.471945) with tilt (2.6980906 0.40181633 0.18248192)

# Run MD

run 1000
  update every 1 steps, delay 0 steps, check yes
Step Temp PotEng Press f_avp[1] f_avp[2] f_avp[3] f_avp[4] f_avp[5] f_avp[6]
0    279.71172   -573.39276    43825.329            0            0            0            0            0            0
Averages over the last 6 of 11 rows, steps 500 to 1000:
Temp PotEng Press f_avp[1] f_avp[2] f_avp[3] f_avp[4] f_avp[5] f_avp[6]
313.913 -574.301 20153 39679.4 9423.83 14777.3 -4371.72 -2730.77 -3038.54
Loop time of 264.422 on 1 procs for 1000 steps with 88 atoms

include potential.mod
# NOTE: This script can be modified for different pair styles
# See in.elastic for more info.

# we must undefine any fix ave/* fix before using reset_timestep
if "$(is_defined(fix,avp))" then "unfix avp"
unfix avp
reset_timestep 0

newton off

# Choose potential
# pair_style	sw
# pair_coeff * * Si.sw Si
pair_style	nequip
pair_coeff	* * tob11_l3-deployed.pth Ca H O Si

atom_modify sort 0 0.0
#kspace_style	ewald 1.0e-6# Setup neighbor style

neighbor 2.0 bin
neigh_modify once no every 1 delay 0 check yes

# Setup output

fix avp all ave/time  10 10 100 c_thermo_press mode vector

#min_style cg
#minimize 1.0e-15 1.0e-15 100000 100000 #设置能量最小化

thermo		100
thermo_style custom step temp pe press f_avp[1] f_avp[2] f_avp[3] f_avp[4] f_avp[5] f_avp[6]
thermo_modify norm no

# Setup MD

timestep 0.001
fix 4 all nve
fix 5 all langevin 300 300 0.01 123457

run 300
Step Temp PotEng Press f_avp[1] f_avp[2] f_avp[3] f_avp[4] f_avp[5] f_avp[6]
0    357.35551   -574.42218     8151.028            0            0            0            0            0            0
Loop time of 80.0983 on 1 procs for 300 steps with 88 atoms

# Obtain new stress tensor

variable pxx1 equal f_avp[1]
variable pyy1 equal f_avp[2]
variable pzz1 equal f_avp[3]
variable pxy1 equal f_avp[4]
variable pxz1 equal f_avp[5]
variable pyz1 equal f_avp[6]

# Compute elastic constant from pressure tensor

variable C1neg equal 108.206197370237
variable C2neg equal 52.0713050106682
variable C3neg equal 25.1978922133502
variable C4neg equal -8.28154026664153
variable C5neg equal 15.9632025834846
variable C6neg equal 6.12339495321668

# Reset box and simulation parameters

clear
box tilt large
read_restart restart.equil
Reading restart file ...
  restart file = 29 Sep 2021, LAMMPS = 29 Sep 2021
  restoring atom style atomic from restart
  triclinic box = (0.052500671 -0.067034418 -0.066498144) to (6.7511993 6.2518494 22.471945) with tilt (2.7531537 0.41001667 0.18248192)
  pair style nequip stores no restart info
  88 atoms
  read_restart CPU = 0.002 seconds
include potential.mod
# NOTE: This script can be modified for different pair styles
# See in.elastic for more info.

# we must undefine any fix ave/* fix before using reset_timestep
if "$(is_defined(fix,avp))" then "unfix avp"
reset_timestep 0

newton off

# Choose potential
# pair_style	sw
# pair_coeff * * Si.sw Si
pair_style	nequip
pair_coeff	* * tob11_l3-deployed.pth Ca H O Si

atom_modify sort 0 0.0
#kspace_style	ewald 1.0e-6# Setup neighbor style

neighbor 2.0 bin
neigh_modify once no every 1 delay 0 check yes

# Setup output

fix avp all ave/time  10 10 100 c_thermo_press mode vector

#min_style cg
#minimize 1.0e-15 1.0e-15 100000 100000 #设置能量最小化

thermo		100
thermo_style custom step temp pe press f_avp[1] f_avp[2] f_avp[3] f_avp[4] f_avp[5] f_avp[6]
thermo_modify norm no

# Setup MD

timestep 0.001
fix 4 all nve
fix 5 all langevin 300 300 0.01 123457

# Positive deformation

variable delta equal 0.02*6.69869865883813
variable deltaxy equal 0.02*xy
variable deltaxz equal 0.02*xz
variable deltayz equal 0.02*yz
change_box all x delta 0 0.133973973176763 xy delta 0.0550630742420238 xz delta 0.00820033334967695 remap units box
Changing box ...
  triclinic box = (0.052500671 -0.067034418 -0.066498144) to (6.8851733 6.2518494 22.471945) with tilt (2.7531537 0.41001667 0.18248192)
  triclinic box = (0.052500671 -0.067034418 -0.066498144) to (6.8851733 6.2518494 22.471945) with tilt (2.8082168 0.41001667 0.18248192)
  triclinic box = (0.052500671 -0.067034418 -0.066498144) to (6.8851733 6.2518494 22.471945) with tilt (2.8082168 0.41821700 0.18248192)

# Run MD

run 1000
  update every 1 steps, delay 0 steps, check yes
Step Temp PotEng Press f_avp[1] f_avp[2] f_avp[3] f_avp[4] f_avp[5] f_avp[6]
0    279.71172    -574.0592   -14858.599            0            0            0            0            0            0
Averages over the last 6 of 11 rows, steps 500 to 1000:
Temp PotEng Press f_avp[1] f_avp[2] f_avp[3] f_avp[4] f_avp[5] f_avp[6]
312.687 -574.539 -5988.83 -6848.84 -8707.99 2066.31 -2063.41 -3229.33 -3506.56
Loop time of 256.886 on 1 procs for 1000 steps with 88 atoms

include potential.mod
# NOTE: This script can be modified for different pair styles
# See in.elastic for more info.

# we must undefine any fix ave/* fix before using reset_timestep
if "$(is_defined(fix,avp))" then "unfix avp"
unfix avp
reset_timestep 0

newton off

# Choose potential
# pair_style	sw
# pair_coeff * * Si.sw Si
pair_style	nequip
pair_coeff	* * tob11_l3-deployed.pth Ca H O Si

atom_modify sort 0 0.0
#kspace_style	ewald 1.0e-6# Setup neighbor style

neighbor 2.0 bin
neigh_modify once no every 1 delay 0 check yes

# Setup output

fix avp all ave/time  10 10 100 c_thermo_press mode vector

#min_style cg
#minimize 1.0e-15 1.0e-15 100000 100000 #设置能量最小化

thermo		100
thermo_style custom step temp pe press f_avp[1] f_avp[2] f_avp[3] f_avp[4] f_avp[5] f_avp[6]
thermo_modify norm no

# Setup MD

timestep 0.001
fix 4 all nve
fix 5 all langevin 300 300 0.01 123457

run 300
Step Temp PotEng Press f_avp[1] f_avp[2] f_avp[3] f_avp[4] f_avp[5] f_avp[6]
0    348.84907   -574.62939   -18178.199            0            0            0            0            0            0
Loop time of 80.996 on 1 procs for 300 steps with 88 atoms

# Obtain new stress tensor

variable pxx1 equal f_avp[1]
variable pyy1 equal f_avp[2]
variable pzz1 equal f_avp[3]
variable pxy1 equal f_avp[4]
variable pxz1 equal f_avp[5]
variable pyz1 equal f_avp[6]

# Compute elastic constant from pressure tensor

variable C1pos equal 126.841968571487
variable C2pos equal 44.6478676832058
variable C3pos equal 35.0233562437819
variable C4pos equal 8.15423287428658
variable C5pos equal -14.0434320866109
variable C6pos equal -14.5179299667873

# Combine positive and negative

variable C11 equal 0.5*(108.206197370237+126.841968571487)
variable C21 equal 0.5*(52.0713050106682+44.6478676832058)
variable C31 equal 0.5*(25.1978922133502+35.0233562437819)
variable C41 equal 0.5*(-8.28154026664153+8.15423287428658)
variable C51 equal 0.5*(15.9632025834846+-14.0434320866109)
variable C61 equal 0.5*(6.12339495321668+-14.5179299667873)

# Delete dir to make sure it is not reused

variable dir delete

# uyy Perturbation

variable dir equal 2
include displace.mod
# NOTE: This script should not need to be
# modified. See in.elastic for more info.
#
# Find which reference length to use

variable len0 equal 6.31888381027747

# Reset box and simulation parameters

clear
box tilt large
read_restart restart.equil
Reading restart file ...
  restart file = 29 Sep 2021, LAMMPS = 29 Sep 2021
  restoring atom style atomic from restart
  triclinic box = (0.052500671 -0.067034418 -0.066498144) to (6.7511993 6.2518494 22.471945) with tilt (2.7531537 0.41001667 0.18248192)
  pair style nequip stores no restart info
  88 atoms
  read_restart CPU = 0.002 seconds
include potential.mod
# NOTE: This script can be modified for different pair styles
# See in.elastic for more info.

# we must undefine any fix ave/* fix before using reset_timestep
if "$(is_defined(fix,avp))" then "unfix avp"
reset_timestep 0

newton off

# Choose potential
# pair_style	sw
# pair_coeff * * Si.sw Si
pair_style	nequip
pair_coeff	* * tob11_l3-deployed.pth Ca H O Si

atom_modify sort 0 0.0
#kspace_style	ewald 1.0e-6# Setup neighbor style

neighbor 2.0 bin
neigh_modify once no every 1 delay 0 check yes

# Setup output

fix avp all ave/time  10 10 100 c_thermo_press mode vector

#min_style cg
#minimize 1.0e-15 1.0e-15 100000 100000 #设置能量最小化

thermo		100
thermo_style custom step temp pe press f_avp[1] f_avp[2] f_avp[3] f_avp[4] f_avp[5] f_avp[6]
thermo_modify norm no

# Setup MD

timestep 0.001
fix 4 all nve
fix 5 all langevin 300 300 0.01 123457

# Negative deformation

variable delta equal -0.02*6.31888381027747
variable deltaxy equal -0.02*xy
variable deltaxz equal -0.02*xz
variable deltayz equal -0.02*yz
change_box all y delta 0 -0.126377676205549 yz delta -0.00364963846911457 remap units box
Changing box ...
  triclinic box = (0.052500671 -0.067034418 -0.066498144) to (6.7511993 6.1254717 22.471945) with tilt (2.7531537 0.41001667 0.18248192)
  triclinic box = (0.052500671 -0.067034418 -0.066498144) to (6.7511993 6.1254717 22.471945) with tilt (2.7531537 0.41001667 0.17883228)

# Run MD

run 1000
  update every 1 steps, delay 0 steps, check yes
Step Temp PotEng Press f_avp[1] f_avp[2] f_avp[3] f_avp[4] f_avp[5] f_avp[6]
0    279.71172   -573.88226    42008.319            0            0            0            0            0            0
Averages over the last 6 of 11 rows, steps 500 to 1000:
Temp PotEng Press f_avp[1] f_avp[2] f_avp[3] f_avp[4] f_avp[5] f_avp[6]
314.71 -574.45 21333.4 25053.1 25014.4 17853.9 -6181.46 -2785.24 -3319.56
Loop time of 262.719 on 1 procs for 1000 steps with 88 atoms

include potential.mod
# NOTE: This script can be modified for different pair styles
# See in.elastic for more info.

# we must undefine any fix ave/* fix before using reset_timestep
if "$(is_defined(fix,avp))" then "unfix avp"
unfix avp
reset_timestep 0

newton off

# Choose potential
# pair_style	sw
# pair_coeff * * Si.sw Si
pair_style	nequip
pair_coeff	* * tob11_l3-deployed.pth Ca H O Si

atom_modify sort 0 0.0
#kspace_style	ewald 1.0e-6# Setup neighbor style

neighbor 2.0 bin
neigh_modify once no every 1 delay 0 check yes

# Setup output

fix avp all ave/time  10 10 100 c_thermo_press mode vector

#min_style cg
#minimize 1.0e-15 1.0e-15 100000 100000 #设置能量最小化

thermo		100
thermo_style custom step temp pe press f_avp[1] f_avp[2] f_avp[3] f_avp[4] f_avp[5] f_avp[6]
thermo_modify norm no

# Setup MD

timestep 0.001
fix 4 all nve
fix 5 all langevin 300 300 0.01 123457

run 300
Step Temp PotEng Press f_avp[1] f_avp[2] f_avp[3] f_avp[4] f_avp[5] f_avp[6]
0    351.14024   -574.43396    8880.5988            0            0            0            0            0            0
Loop time of 83.7691 on 1 procs for 300 steps with 88 atoms

# Obtain new stress tensor

variable pxx1 equal f_avp[1]
variable pyy1 equal f_avp[2]
variable pzz1 equal f_avp[3]
variable pxy1 equal f_avp[4]
variable pxz1 equal f_avp[5]
variable pyz1 equal f_avp[6]

# Compute elastic constant from pressure tensor

variable C1neg equal 20.3969323248811
variable C2neg equal 125.471831019834
variable C3neg equal 23.8217334895548
variable C4neg equal -1.17305258498665
variable C5neg equal 21.5341123147047
variable C6neg equal 5.33960392523522

# Reset box and simulation parameters

clear
box tilt large
read_restart restart.equil
Reading restart file ...
  restart file = 29 Sep 2021, LAMMPS = 29 Sep 2021
  restoring atom style atomic from restart
  triclinic box = (0.052500671 -0.067034418 -0.066498144) to (6.7511993 6.2518494 22.471945) with tilt (2.7531537 0.41001667 0.18248192)
  pair style nequip stores no restart info
  88 atoms
  read_restart CPU = 0.001 seconds
include potential.mod
# NOTE: This script can be modified for different pair styles
# See in.elastic for more info.

# we must undefine any fix ave/* fix before using reset_timestep
if "$(is_defined(fix,avp))" then "unfix avp"
reset_timestep 0

newton off

# Choose potential
# pair_style	sw
# pair_coeff * * Si.sw Si
pair_style	nequip
pair_coeff	* * tob11_l3-deployed.pth Ca H O Si

atom_modify sort 0 0.0
#kspace_style	ewald 1.0e-6# Setup neighbor style

neighbor 2.0 bin
neigh_modify once no every 1 delay 0 check yes

# Setup output

fix avp all ave/time  10 10 100 c_thermo_press mode vector

#min_style cg
#minimize 1.0e-15 1.0e-15 100000 100000 #设置能量最小化

thermo		100
thermo_style custom step temp pe press f_avp[1] f_avp[2] f_avp[3] f_avp[4] f_avp[5] f_avp[6]
thermo_modify norm no

# Setup MD

timestep 0.001
fix 4 all nve
fix 5 all langevin 300 300 0.01 123457

# Positive deformation

variable delta equal 0.02*6.31888381027747
variable deltaxy equal 0.02*xy
variable deltaxz equal 0.02*xz
variable deltayz equal 0.02*yz
change_box all y delta 0 0.126377676205549 yz delta 0.00364963846911457 remap units box
Changing box ...
  triclinic box = (0.052500671 -0.067034418 -0.066498144) to (6.7511993 6.3782271 22.471945) with tilt (2.7531537 0.41001667 0.18248192)
  triclinic box = (0.052500671 -0.067034418 -0.066498144) to (6.7511993 6.3782271 22.471945) with tilt (2.7531537 0.41001667 0.18613156)

# Run MD

run 1000
  update every 1 steps, delay 0 steps, check yes
Step Temp PotEng Press f_avp[1] f_avp[2] f_avp[3] f_avp[4] f_avp[5] f_avp[6]
0    279.71172   -573.64709   -13255.703            0            0            0            0            0            0
Averages over the last 6 of 11 rows, steps 500 to 1000:
Temp PotEng Press f_avp[1] f_avp[2] f_avp[3] f_avp[4] f_avp[5] f_avp[6]
309.35 -574.238 -6165.66 5649.7 -21291.5 -634.45 580.466 -3463.4 -2084.27
Loop time of 251.951 on 1 procs for 1000 steps with 88 atoms

include potential.mod
# NOTE: This script can be modified for different pair styles
# See in.elastic for more info.

# we must undefine any fix ave/* fix before using reset_timestep
if "$(is_defined(fix,avp))" then "unfix avp"
unfix avp
reset_timestep 0

newton off

# Choose potential
# pair_style	sw
# pair_coeff * * Si.sw Si
pair_style	nequip
pair_coeff	* * tob11_l3-deployed.pth Ca H O Si

atom_modify sort 0 0.0
#kspace_style	ewald 1.0e-6# Setup neighbor style

neighbor 2.0 bin
neigh_modify once no every 1 delay 0 check yes

# Setup output

fix avp all ave/time  10 10 100 c_thermo_press mode vector

#min_style cg
#minimize 1.0e-15 1.0e-15 100000 100000 #设置能量最小化

thermo		100
thermo_style custom step temp pe press f_avp[1] f_avp[2] f_avp[3] f_avp[4] f_avp[5] f_avp[6]
thermo_modify norm no

# Setup MD

timestep 0.001
fix 4 all nve
fix 5 all langevin 300 300 0.01 123457

run 300
Step Temp PotEng Press f_avp[1] f_avp[2] f_avp[3] f_avp[4] f_avp[5] f_avp[6]
0    340.01873   -574.44067   -18066.139            0            0            0            0            0            0
Loop time of 80.5217 on 1 procs for 300 steps with 88 atoms

# Obtain new stress tensor

variable pxx1 equal f_avp[1]
variable pyy1 equal f_avp[2]
variable pzz1 equal f_avp[3]
variable pxy1 equal f_avp[4]
variable pxz1 equal f_avp[5]
variable pyz1 equal f_avp[6]

# Compute elastic constant from pressure tensor

variable C1pos equal 67.4442882806586
variable C2pos equal 100.179947239147
variable C3pos equal 38.4277893230626
variable C4pos equal 14.0163956968425
variable C5pos equal -1.64684576178715
variable C6pos equal -26.8965740358005

# Combine positive and negative

variable C12 equal 0.5*(20.3969323248811+67.4442882806586)
variable C22 equal 0.5*(125.471831019834+100.179947239147)
variable C32 equal 0.5*(23.8217334895548+38.4277893230626)
variable C42 equal 0.5*(-1.17305258498665+14.0163956968425)
variable C52 equal 0.5*(21.5341123147047+-1.64684576178715)
variable C62 equal 0.5*(5.33960392523522+-26.8965740358005)

# Delete dir to make sure it is not reused

variable dir delete

# uzz Perturbation

variable dir equal 3
include displace.mod
# NOTE: This script should not need to be
# modified. See in.elastic for more info.
#
# Find which reference length to use

variable len0 equal 22.5384426452898

# Reset box and simulation parameters

clear
box tilt large
read_restart restart.equil
Reading restart file ...
  restart file = 29 Sep 2021, LAMMPS = 29 Sep 2021
  restoring atom style atomic from restart
  triclinic box = (0.052500671 -0.067034418 -0.066498144) to (6.7511993 6.2518494 22.471945) with tilt (2.7531537 0.41001667 0.18248192)
  pair style nequip stores no restart info
  88 atoms
  read_restart CPU = 0.001 seconds
include potential.mod
# NOTE: This script can be modified for different pair styles
# See in.elastic for more info.

# we must undefine any fix ave/* fix before using reset_timestep
if "$(is_defined(fix,avp))" then "unfix avp"
reset_timestep 0

newton off

# Choose potential
# pair_style	sw
# pair_coeff * * Si.sw Si
pair_style	nequip
pair_coeff	* * tob11_l3-deployed.pth Ca H O Si

atom_modify sort 0 0.0
#kspace_style	ewald 1.0e-6# Setup neighbor style

neighbor 2.0 bin
neigh_modify once no every 1 delay 0 check yes

# Setup output

fix avp all ave/time  10 10 100 c_thermo_press mode vector

#min_style cg
#minimize 1.0e-15 1.0e-15 100000 100000 #设置能量最小化

thermo		100
thermo_style custom step temp pe press f_avp[1] f_avp[2] f_avp[3] f_avp[4] f_avp[5] f_avp[6]
thermo_modify norm no

# Setup MD

timestep 0.001
fix 4 all nve
fix 5 all langevin 300 300 0.01 123457

# Negative deformation

variable delta equal -0.02*22.5384426452898
variable deltaxy equal -0.02*xy
variable deltaxz equal -0.02*xz
variable deltayz equal -0.02*yz
change_box all z delta 0 -0.450768852905796 remap units box
Changing box ...
  triclinic box = (0.052500671 -0.067034418 -0.066498144) to (6.7511993 6.2518494 22.021176) with tilt (2.7531537 0.41001667 0.18248192)

# Run MD

run 1000
  update every 1 steps, delay 0 steps, check yes
Step Temp PotEng Press f_avp[1] f_avp[2] f_avp[3] f_avp[4] f_avp[5] f_avp[6]
0    279.71172   -573.61719     40373.49            0            0            0            0            0            0
Averages over the last 6 of 11 rows, steps 500 to 1000:
Temp PotEng Press f_avp[1] f_avp[2] f_avp[3] f_avp[4] f_avp[5] f_avp[6]
314.639 -574.364 21112.6 21810.7 9178.14 36138.3 -5705.82 -2841.64 -3717.56
Loop time of 265.467 on 1 procs for 1000 steps with 88 atoms

include potential.mod
# NOTE: This script can be modified for different pair styles
# See in.elastic for more info.

# we must undefine any fix ave/* fix before using reset_timestep
if "$(is_defined(fix,avp))" then "unfix avp"
unfix avp
reset_timestep 0

newton off

# Choose potential
# pair_style	sw
# pair_coeff * * Si.sw Si
pair_style	nequip
pair_coeff	* * tob11_l3-deployed.pth Ca H O Si

atom_modify sort 0 0.0
#kspace_style	ewald 1.0e-6# Setup neighbor style

neighbor 2.0 bin
neigh_modify once no every 1 delay 0 check yes

# Setup output

fix avp all ave/time  10 10 100 c_thermo_press mode vector

#min_style cg
#minimize 1.0e-15 1.0e-15 100000 100000 #设置能量最小化

thermo		100
thermo_style custom step temp pe press f_avp[1] f_avp[2] f_avp[3] f_avp[4] f_avp[5] f_avp[6]
thermo_modify norm no

# Setup MD

timestep 0.001
fix 4 all nve
fix 5 all langevin 300 300 0.01 123457

run 300
Step Temp PotEng Press f_avp[1] f_avp[2] f_avp[3] f_avp[4] f_avp[5] f_avp[6]
0    355.01342   -574.48999    8107.0292            0            0            0            0            0            0
Loop time of 81.2222 on 1 procs for 300 steps with 88 atoms

# Obtain new stress tensor

variable pxx1 equal f_avp[1]
variable pyy1 equal f_avp[2]
variable pzz1 equal f_avp[3]
variable pxy1 equal f_avp[4]
variable pxz1 equal f_avp[5]
variable pyz1 equal f_avp[6]

# Compute elastic constant from pressure tensor

variable C1neg equal 18.4117134423695
variable C2neg equal 46.3820948015909
variable C3neg equal 126.648636151985
variable C4neg equal -12.5657932618406
variable C5neg equal 16.1247406089327
variable C6neg equal -1.91941345069535

# Reset box and simulation parameters

clear
box tilt large
read_restart restart.equil
Reading restart file ...
  restart file = 29 Sep 2021, LAMMPS = 29 Sep 2021
  restoring atom style atomic from restart
  triclinic box = (0.052500671 -0.067034418 -0.066498144) to (6.7511993 6.2518494 22.471945) with tilt (2.7531537 0.41001667 0.18248192)
  pair style nequip stores no restart info
  88 atoms
  read_restart CPU = 0.002 seconds
include potential.mod
# NOTE: This script can be modified for different pair styles
# See in.elastic for more info.

# we must undefine any fix ave/* fix before using reset_timestep
if "$(is_defined(fix,avp))" then "unfix avp"
reset_timestep 0

newton off

# Choose potential
# pair_style	sw
# pair_coeff * * Si.sw Si
pair_style	nequip
pair_coeff	* * tob11_l3-deployed.pth Ca H O Si

atom_modify sort 0 0.0
#kspace_style	ewald 1.0e-6# Setup neighbor style

neighbor 2.0 bin
neigh_modify once no every 1 delay 0 check yes

# Setup output

fix avp all ave/time  10 10 100 c_thermo_press mode vector

#min_style cg
#minimize 1.0e-15 1.0e-15 100000 100000 #设置能量最小化

thermo		100
thermo_style custom step temp pe press f_avp[1] f_avp[2] f_avp[3] f_avp[4] f_avp[5] f_avp[6]
thermo_modify norm no

# Setup MD

timestep 0.001
fix 4 all nve
fix 5 all langevin 300 300 0.01 123457

# Positive deformation

variable delta equal 0.02*22.5384426452898
variable deltaxy equal 0.02*xy
variable deltaxz equal 0.02*xz
variable deltayz equal 0.02*yz
change_box all z delta 0 0.450768852905796 remap units box
Changing box ...
  triclinic box = (0.052500671 -0.067034418 -0.066498144) to (6.7511993 6.2518494 22.922713) with tilt (2.7531537 0.41001667 0.18248192)

# Run MD

run 1000
  update every 1 steps, delay 0 steps, check yes
Step Temp PotEng Press f_avp[1] f_avp[2] f_avp[3] f_avp[4] f_avp[5] f_avp[6]
0    279.71172   -573.91705   -11723.283            0            0            0            0            0            0
Averages over the last 6 of 11 rows, steps 500 to 1000:
Temp PotEng Press f_avp[1] f_avp[2] f_avp[3] f_avp[4] f_avp[5] f_avp[6]
314.281 -574.429 -7138.35 8728.33 -8761.85 -17438.3 -442.943 -3271.56 -2915.85
Loop time of 256.665 on 1 procs for 1000 steps with 88 atoms

include potential.mod
# NOTE: This script can be modified for different pair styles
# See in.elastic for more info.

# we must undefine any fix ave/* fix before using reset_timestep
if "$(is_defined(fix,avp))" then "unfix avp"
unfix avp
reset_timestep 0

newton off

# Choose potential
# pair_style	sw
# pair_coeff * * Si.sw Si
pair_style	nequip
pair_coeff	* * tob11_l3-deployed.pth Ca H O Si

atom_modify sort 0 0.0
#kspace_style	ewald 1.0e-6# Setup neighbor style

neighbor 2.0 bin
neigh_modify once no every 1 delay 0 check yes

# Setup output

fix avp all ave/time  10 10 100 c_thermo_press mode vector

#min_style cg
#minimize 1.0e-15 1.0e-15 100000 100000 #设置能量最小化

thermo		100
thermo_style custom step temp pe press f_avp[1] f_avp[2] f_avp[3] f_avp[4] f_avp[5] f_avp[6]
thermo_modify norm no

# Setup MD

timestep 0.001
fix 4 all nve
fix 5 all langevin 300 300 0.01 123457

run 300
Step Temp PotEng Press f_avp[1] f_avp[2] f_avp[3] f_avp[4] f_avp[5] f_avp[6]
0    356.23446   -574.54584   -17732.189            0            0            0            0            0            0
Loop time of 77.7935 on 1 procs for 300 steps with 88 atoms

# Obtain new stress tensor

variable pxx1 equal f_avp[1]
variable pyy1 equal f_avp[2]
variable pzz1 equal f_avp[3]
variable pxy1 equal f_avp[4]
variable pxz1 equal f_avp[5]
variable pyz1 equal f_avp[6]

# Compute elastic constant from pressure tensor

variable C1pos equal 48.360310991514
variable C2pos equal 40.2357017365389
variable C3pos equal 126.975942166199
variable C4pos equal 4.97448798716745
variable C5pos equal -13.175490253716
variable C6pos equal -22.6626207105889

# Combine positive and negative

variable C13 equal 0.5*(18.4117134423695+48.360310991514)
variable C23 equal 0.5*(46.3820948015909+40.2357017365389)
variable C33 equal 0.5*(126.648636151985+126.975942166199)
variable C43 equal 0.5*(-12.5657932618406+4.97448798716745)
variable C53 equal 0.5*(16.1247406089327+-13.175490253716)
variable C63 equal 0.5*(-1.91941345069535+-22.6626207105889)

# Delete dir to make sure it is not reused

variable dir delete

# uyz Perturbation

variable dir equal 4
include displace.mod
# NOTE: This script should not need to be
# modified. See in.elastic for more info.
#
# Find which reference length to use

variable len0 equal 22.5384426452898

# Reset box and simulation parameters

clear
box tilt large
read_restart restart.equil
Reading restart file ...
  restart file = 29 Sep 2021, LAMMPS = 29 Sep 2021
  restoring atom style atomic from restart
  triclinic box = (0.052500671 -0.067034418 -0.066498144) to (6.7511993 6.2518494 22.471945) with tilt (2.7531537 0.41001667 0.18248192)
  pair style nequip stores no restart info
  88 atoms
  read_restart CPU = 0.001 seconds
include potential.mod
# NOTE: This script can be modified for different pair styles
# See in.elastic for more info.

# we must undefine any fix ave/* fix before using reset_timestep
if "$(is_defined(fix,avp))" then "unfix avp"
reset_timestep 0

newton off

# Choose potential
# pair_style	sw
# pair_coeff * * Si.sw Si
pair_style	nequip
pair_coeff	* * tob11_l3-deployed.pth Ca H O Si

atom_modify sort 0 0.0
#kspace_style	ewald 1.0e-6# Setup neighbor style

neighbor 2.0 bin
neigh_modify once no every 1 delay 0 check yes

# Setup output

fix avp all ave/time  10 10 100 c_thermo_press mode vector

#min_style cg
#minimize 1.0e-15 1.0e-15 100000 100000 #设置能量最小化

thermo		100
thermo_style custom step temp pe press f_avp[1] f_avp[2] f_avp[3] f_avp[4] f_avp[5] f_avp[6]
thermo_modify norm no

# Setup MD

timestep 0.001
fix 4 all nve
fix 5 all langevin 300 300 0.01 123457

# Negative deformation

variable delta equal -0.02*22.5384426452898
variable deltaxy equal -0.02*xy
variable deltaxz equal -0.02*xz
variable deltayz equal -0.02*yz
change_box all yz delta -0.450768852905796 remap units box
Changing box ...
  triclinic box = (0.052500671 -0.067034418 -0.066498144) to (6.7511993 6.2518494 22.471945) with tilt (2.7531537 0.41001667 -0.26828693)

# Run MD

run 1000
  update every 1 steps, delay 0 steps, check yes
Step Temp PotEng Press f_avp[1] f_avp[2] f_avp[3] f_avp[4] f_avp[5] f_avp[6]
0    279.71172   -574.02368    13225.916            0            0            0            0            0            0
Averages over the last 6 of 11 rows, steps 500 to 1000:
Temp PotEng Press f_avp[1] f_avp[2] f_avp[3] f_avp[4] f_avp[5] f_avp[6]
313.938 -574.528 6487.97 15412.9 -156.039 7911.57 -2971.87 -4985.76 3281.81
Loop time of 260.722 on 1 procs for 1000 steps with 88 atoms

include potential.mod
# NOTE: This script can be modified for different pair styles
# See in.elastic for more info.

# we must undefine any fix ave/* fix before using reset_timestep
if "$(is_defined(fix,avp))" then "unfix avp"
unfix avp
reset_timestep 0

newton off

# Choose potential
# pair_style	sw
# pair_coeff * * Si.sw Si
pair_style	nequip
pair_coeff	* * tob11_l3-deployed.pth Ca H O Si

atom_modify sort 0 0.0
#kspace_style	ewald 1.0e-6# Setup neighbor style

neighbor 2.0 bin
neigh_modify once no every 1 delay 0 check yes

# Setup output

fix avp all ave/time  10 10 100 c_thermo_press mode vector

#min_style cg
#minimize 1.0e-15 1.0e-15 100000 100000 #设置能量最小化

thermo		100
thermo_style custom step temp pe press f_avp[1] f_avp[2] f_avp[3] f_avp[4] f_avp[5] f_avp[6]
thermo_modify norm no

# Setup MD

timestep 0.001
fix 4 all nve
fix 5 all langevin 300 300 0.01 123457

run 300
Step Temp PotEng Press f_avp[1] f_avp[2] f_avp[3] f_avp[4] f_avp[5] f_avp[6]
0    352.66237   -574.63873   -5680.2559            0            0            0            0            0            0
Loop time of 82.4807 on 1 procs for 300 steps with 88 atoms

# Obtain new stress tensor

variable pxx1 equal f_avp[1]
variable pyy1 equal f_avp[2]
variable pzz1 equal f_avp[3]
variable pxy1 equal f_avp[4]
variable pxz1 equal f_avp[5]
variable pyz1 equal f_avp[6]

# Compute elastic constant from pressure tensor

variable C1neg equal -13.9820314565645
variable C2neg equal 1.99463120847905
variable C3neg equal -10.7442533989358
variable C4neg equal 22.6597074111162
variable C5neg equal 5.55241054270995
variable C6neg equal 11.2847730384091

# Reset box and simulation parameters

clear
box tilt large
read_restart restart.equil
Reading restart file ...
  restart file = 29 Sep 2021, LAMMPS = 29 Sep 2021
  restoring atom style atomic from restart
  triclinic box = (0.052500671 -0.067034418 -0.066498144) to (6.7511993 6.2518494 22.471945) with tilt (2.7531537 0.41001667 0.18248192)
  pair style nequip stores no restart info
  88 atoms
  read_restart CPU = 0.001 seconds
include potential.mod
# NOTE: This script can be modified for different pair styles
# See in.elastic for more info.

# we must undefine any fix ave/* fix before using reset_timestep
if "$(is_defined(fix,avp))" then "unfix avp"
reset_timestep 0

newton off

# Choose potential
# pair_style	sw
# pair_coeff * * Si.sw Si
pair_style	nequip
pair_coeff	* * tob11_l3-deployed.pth Ca H O Si

atom_modify sort 0 0.0
#kspace_style	ewald 1.0e-6# Setup neighbor style

neighbor 2.0 bin
neigh_modify once no every 1 delay 0 check yes

# Setup output

fix avp all ave/time  10 10 100 c_thermo_press mode vector

#min_style cg
#minimize 1.0e-15 1.0e-15 100000 100000 #设置能量最小化

thermo		100
thermo_style custom step temp pe press f_avp[1] f_avp[2] f_avp[3] f_avp[4] f_avp[5] f_avp[6]
thermo_modify norm no

# Setup MD

timestep 0.001
fix 4 all nve
fix 5 all langevin 300 300 0.01 123457

# Positive deformation

variable delta equal 0.02*22.5384426452898
variable deltaxy equal 0.02*xy
variable deltaxz equal 0.02*xz
variable deltayz equal 0.02*yz
change_box all yz delta 0.450768852905796 remap units box
Changing box ...
  triclinic box = (0.052500671 -0.067034418 -0.066498144) to (6.7511993 6.2518494 22.471945) with tilt (2.7531537 0.41001667 0.63325078)

# Run MD

run 1000
  update every 1 steps, delay 0 steps, check yes
Step Temp PotEng Press f_avp[1] f_avp[2] f_avp[3] f_avp[4] f_avp[5] f_avp[6]
0    279.71172   -573.87805    12580.085            0            0            0            0            0            0
Averages over the last 6 of 11 rows, steps 500 to 1000:
Temp PotEng Press f_avp[1] f_avp[2] f_avp[3] f_avp[4] f_avp[5] f_avp[6]
314.359 -574.523 6246.23 14759.1 -450.87 8347.82 -3164.85 -1041.36 -9922.28
Loop time of 261.933 on 1 procs for 1000 steps with 88 atoms

include potential.mod
# NOTE: This script can be modified for different pair styles
# See in.elastic for more info.

# we must undefine any fix ave/* fix before using reset_timestep
if "$(is_defined(fix,avp))" then "unfix avp"
unfix avp
reset_timestep 0

newton off

# Choose potential
# pair_style	sw
# pair_coeff * * Si.sw Si
pair_style	nequip
pair_coeff	* * tob11_l3-deployed.pth Ca H O Si

atom_modify sort 0 0.0
#kspace_style	ewald 1.0e-6# Setup neighbor style

neighbor 2.0 bin
neigh_modify once no every 1 delay 0 check yes

# Setup output

fix avp all ave/time  10 10 100 c_thermo_press mode vector

#min_style cg
#minimize 1.0e-15 1.0e-15 100000 100000 #设置能量最小化

thermo		100
thermo_style custom step temp pe press f_avp[1] f_avp[2] f_avp[3] f_avp[4] f_avp[5] f_avp[6]
thermo_modify norm no

# Setup MD

timestep 0.001
fix 4 all nve
fix 5 all langevin 300 300 0.01 123457

run 300
Step Temp PotEng Press f_avp[1] f_avp[2] f_avp[3] f_avp[4] f_avp[5] f_avp[6]
0    358.82595   -574.64752   -5195.8644            0            0            0            0            0            0
Loop time of 79.0814 on 1 procs for 300 steps with 88 atoms

# Obtain new stress tensor

variable pxx1 equal f_avp[1]
variable pyy1 equal f_avp[2]
variable pzz1 equal f_avp[3]
variable pxy1 equal f_avp[4]
variable pxz1 equal f_avp[5]
variable pyz1 equal f_avp[6]

# Compute elastic constant from pressure tensor

variable C1pos equal 18.924052563413
variable C2pos equal 1.19977355340035
variable C3pos equal 2.4532901862477
variable C4pos equal 39.1466152606359
variable C5pos equal -24.564229052462
variable C6pos equal -9.95223738661825

# Combine positive and negative

variable C14 equal 0.5*(-13.9820314565645+18.924052563413)
variable C24 equal 0.5*(1.99463120847905+1.19977355340035)
variable C34 equal 0.5*(-10.7442533989358+2.4532901862477)
variable C44 equal 0.5*(22.6597074111162+39.1466152606359)
variable C54 equal 0.5*(5.55241054270995+-24.564229052462)
variable C64 equal 0.5*(11.2847730384091+-9.95223738661825)

# Delete dir to make sure it is not reused

variable dir delete

# uxz Perturbation

variable dir equal 5
include displace.mod
# NOTE: This script should not need to be
# modified. See in.elastic for more info.
#
# Find which reference length to use

variable len0 equal 22.5384426452898

# Reset box and simulation parameters

clear
box tilt large
read_restart restart.equil
Reading restart file ...
  restart file = 29 Sep 2021, LAMMPS = 29 Sep 2021
  restoring atom style atomic from restart
  triclinic box = (0.052500671 -0.067034418 -0.066498144) to (6.7511993 6.2518494 22.471945) with tilt (2.7531537 0.41001667 0.18248192)
  pair style nequip stores no restart info
  88 atoms
  read_restart CPU = 0.000 seconds
include potential.mod
# NOTE: This script can be modified for different pair styles
# See in.elastic for more info.

# we must undefine any fix ave/* fix before using reset_timestep
if "$(is_defined(fix,avp))" then "unfix avp"
reset_timestep 0

newton off

# Choose potential
# pair_style	sw
# pair_coeff * * Si.sw Si
pair_style	nequip
pair_coeff	* * tob11_l3-deployed.pth Ca H O Si

atom_modify sort 0 0.0
#kspace_style	ewald 1.0e-6# Setup neighbor style

neighbor 2.0 bin
neigh_modify once no every 1 delay 0 check yes

# Setup output

fix avp all ave/time  10 10 100 c_thermo_press mode vector

#min_style cg
#minimize 1.0e-15 1.0e-15 100000 100000 #设置能量最小化

thermo		100
thermo_style custom step temp pe press f_avp[1] f_avp[2] f_avp[3] f_avp[4] f_avp[5] f_avp[6]
thermo_modify norm no

# Setup MD

timestep 0.001
fix 4 all nve
fix 5 all langevin 300 300 0.01 123457

# Negative deformation

variable delta equal -0.02*22.5384426452898
variable deltaxy equal -0.02*xy
variable deltaxz equal -0.02*xz
variable deltayz equal -0.02*yz
change_box all xz delta -0.450768852905796 remap units box
Changing box ...
  triclinic box = (0.052500671 -0.067034418 -0.066498144) to (6.7511993 6.2518494 22.471945) with tilt (2.7531537 -0.040752185 0.18248192)

# Run MD

run 1000
  update every 1 steps, delay 0 steps, check yes
Step Temp PotEng Press f_avp[1] f_avp[2] f_avp[3] f_avp[4] f_avp[5] f_avp[6]
0    279.71172   -573.93884    12862.588            0            0            0            0            0            0
Averages over the last 6 of 11 rows, steps 500 to 1000:
Temp PotEng Press f_avp[1] f_avp[2] f_avp[3] f_avp[4] f_avp[5] f_avp[6]
314.295 -574.567 6410.25 15128.3 79.5179 8273.47 -2873.3 1441.59 -5097.49
Loop time of 258.275 on 1 procs for 1000 steps with 88 atoms

include potential.mod
# NOTE: This script can be modified for different pair styles
# See in.elastic for more info.

# we must undefine any fix ave/* fix before using reset_timestep
if "$(is_defined(fix,avp))" then "unfix avp"
unfix avp
reset_timestep 0

newton off

# Choose potential
# pair_style	sw
# pair_coeff * * Si.sw Si
pair_style	nequip
pair_coeff	* * tob11_l3-deployed.pth Ca H O Si

atom_modify sort 0 0.0
#kspace_style	ewald 1.0e-6# Setup neighbor style

neighbor 2.0 bin
neigh_modify once no every 1 delay 0 check yes

# Setup output

fix avp all ave/time  10 10 100 c_thermo_press mode vector

#min_style cg
#minimize 1.0e-15 1.0e-15 100000 100000 #设置能量最小化

thermo		100
thermo_style custom step temp pe press f_avp[1] f_avp[2] f_avp[3] f_avp[4] f_avp[5] f_avp[6]
thermo_modify norm no

# Setup MD

timestep 0.001
fix 4 all nve
fix 5 all langevin 300 300 0.01 123457

run 300
Step Temp PotEng Press f_avp[1] f_avp[2] f_avp[3] f_avp[4] f_avp[5] f_avp[6]
0    355.88796   -574.67755    -5443.504            0            0            0            0            0            0
Loop time of 83.5843 on 1 procs for 300 steps with 88 atoms

# Obtain new stress tensor

variable pxx1 equal f_avp[1]
variable pyy1 equal f_avp[2]
variable pzz1 equal f_avp[3]
variable pxy1 equal f_avp[4]
variable pxz1 equal f_avp[5]
variable pyz1 equal f_avp[6]

# Compute elastic constant from pressure tensor

variable C1neg equal -15.4713317593715
variable C2neg equal 2.9170210874734
variable C3neg equal -5.0792626213729
variable C4neg equal -17.947604750496
variable C5neg equal 33.7024730095084
variable C6neg equal 8.7760622327676

# Reset box and simulation parameters

clear
box tilt large
read_restart restart.equil
Reading restart file ...
  restart file = 29 Sep 2021, LAMMPS = 29 Sep 2021
  restoring atom style atomic from restart
  triclinic box = (0.052500671 -0.067034418 -0.066498144) to (6.7511993 6.2518494 22.471945) with tilt (2.7531537 0.41001667 0.18248192)
  pair style nequip stores no restart info
  88 atoms
  read_restart CPU = 0.002 seconds
include potential.mod
# NOTE: This script can be modified for different pair styles
# See in.elastic for more info.

# we must undefine any fix ave/* fix before using reset_timestep
if "$(is_defined(fix,avp))" then "unfix avp"
reset_timestep 0

newton off

# Choose potential
# pair_style	sw
# pair_coeff * * Si.sw Si
pair_style	nequip
pair_coeff	* * tob11_l3-deployed.pth Ca H O Si

atom_modify sort 0 0.0
#kspace_style	ewald 1.0e-6# Setup neighbor style

neighbor 2.0 bin
neigh_modify once no every 1 delay 0 check yes

# Setup output

fix avp all ave/time  10 10 100 c_thermo_press mode vector

#min_style cg
#minimize 1.0e-15 1.0e-15 100000 100000 #设置能量最小化

thermo		100
thermo_style custom step temp pe press f_avp[1] f_avp[2] f_avp[3] f_avp[4] f_avp[5] f_avp[6]
thermo_modify norm no

# Setup MD

timestep 0.001
fix 4 all nve
fix 5 all langevin 300 300 0.01 123457

# Positive deformation

variable delta equal 0.02*22.5384426452898
variable deltaxy equal 0.02*xy
variable deltaxz equal 0.02*xz
variable deltayz equal 0.02*yz
change_box all xz delta 0.450768852905796 remap units box
Changing box ...
  triclinic box = (0.052500671 -0.067034418 -0.066498144) to (6.7511993 6.2518494 22.471945) with tilt (2.7531537 0.86078552 0.18248192)

# Run MD

run 1000
  update every 1 steps, delay 0 steps, check yes
Step Temp PotEng Press f_avp[1] f_avp[2] f_avp[3] f_avp[4] f_avp[5] f_avp[6]
0    279.71172   -573.96814    12952.955            0            0            0            0            0            0
Averages over the last 6 of 11 rows, steps 500 to 1000:
Temp PotEng Press f_avp[1] f_avp[2] f_avp[3] f_avp[4] f_avp[5] f_avp[6]
314.483 -574.518 6360.95 15020.1 -376.312 7961.63 -3297.54 -7437.85 -1459.59
Loop time of 260.79 on 1 procs for 1000 steps with 88 atoms

include potential.mod
# NOTE: This script can be modified for different pair styles
# See in.elastic for more info.

# we must undefine any fix ave/* fix before using reset_timestep
if "$(is_defined(fix,avp))" then "unfix avp"
unfix avp
reset_timestep 0

newton off

# Choose potential
# pair_style	sw
# pair_coeff * * Si.sw Si
pair_style	nequip
pair_coeff	* * tob11_l3-deployed.pth Ca H O Si

atom_modify sort 0 0.0
#kspace_style	ewald 1.0e-6# Setup neighbor style

neighbor 2.0 bin
neigh_modify once no every 1 delay 0 check yes

# Setup output

fix avp all ave/time  10 10 100 c_thermo_press mode vector

#min_style cg
#minimize 1.0e-15 1.0e-15 100000 100000 #设置能量最小化

thermo		100
thermo_style custom step temp pe press f_avp[1] f_avp[2] f_avp[3] f_avp[4] f_avp[5] f_avp[6]
thermo_modify norm no

# Setup MD

timestep 0.001
fix 4 all nve
fix 5 all langevin 300 300 0.01 123457

run 300
Step Temp PotEng Press f_avp[1] f_avp[2] f_avp[3] f_avp[4] f_avp[5] f_avp[6]
0    356.31992   -574.65686   -5288.5291            0            0            0            0            0            0
Loop time of 82.9035 on 1 procs for 300 steps with 88 atoms

# Obtain new stress tensor

variable pxx1 equal f_avp[1]
variable pyy1 equal f_avp[2]
variable pzz1 equal f_avp[3]
variable pxy1 equal f_avp[4]
variable pxz1 equal f_avp[5]
variable pyz1 equal f_avp[6]

# Compute elastic constant from pressure tensor

variable C1pos equal 15.572013128188
variable C2pos equal -0.198952925910598
variable C3pos equal 7.47830926504535
variable C4pos equal -1.05847835626185
variable C5pos equal 4.7150657492603
variable C6pos equal -10.4640384568516

# Combine positive and negative

variable C15 equal 0.5*(-15.4713317593715+15.572013128188)
variable C25 equal 0.5*(2.9170210874734+-0.198952925910598)
variable C35 equal 0.5*(-5.0792626213729+7.47830926504535)
variable C45 equal 0.5*(-17.947604750496+-1.05847835626185)
variable C55 equal 0.5*(33.7024730095084+4.7150657492603)
variable C65 equal 0.5*(8.7760622327676+-10.4640384568516)

# Delete dir to make sure it is not reused

variable dir delete

# uxy Perturbation

variable dir equal 6
include displace.mod
# NOTE: This script should not need to be
# modified. See in.elastic for more info.
#
# Find which reference length to use

variable len0 equal 6.31888381027747

# Reset box and simulation parameters

clear
box tilt large
read_restart restart.equil
Reading restart file ...
  restart file = 29 Sep 2021, LAMMPS = 29 Sep 2021
  restoring atom style atomic from restart
  triclinic box = (0.052500671 -0.067034418 -0.066498144) to (6.7511993 6.2518494 22.471945) with tilt (2.7531537 0.41001667 0.18248192)
  pair style nequip stores no restart info
  88 atoms
  read_restart CPU = 0.002 seconds
include potential.mod
# NOTE: This script can be modified for different pair styles
# See in.elastic for more info.

# we must undefine any fix ave/* fix before using reset_timestep
if "$(is_defined(fix,avp))" then "unfix avp"
reset_timestep 0

newton off

# Choose potential
# pair_style	sw
# pair_coeff * * Si.sw Si
pair_style	nequip
pair_coeff	* * tob11_l3-deployed.pth Ca H O Si

atom_modify sort 0 0.0
#kspace_style	ewald 1.0e-6# Setup neighbor style

neighbor 2.0 bin
neigh_modify once no every 1 delay 0 check yes

# Setup output

fix avp all ave/time  10 10 100 c_thermo_press mode vector

#min_style cg
#minimize 1.0e-15 1.0e-15 100000 100000 #设置能量最小化

thermo		100
thermo_style custom step temp pe press f_avp[1] f_avp[2] f_avp[3] f_avp[4] f_avp[5] f_avp[6]
thermo_modify norm no

# Setup MD

timestep 0.001
fix 4 all nve
fix 5 all langevin 300 300 0.01 123457

# Negative deformation

variable delta equal -0.02*6.31888381027747
variable deltaxy equal -0.02*xy
variable deltaxz equal -0.02*xz
variable deltayz equal -0.02*yz
change_box all xy delta -0.126377676205549 remap units box
Changing box ...
  triclinic box = (0.052500671 -0.067034418 -0.066498144) to (6.7511993 6.2518494 22.471945) with tilt (2.6267760 0.41001667 0.18248192)

# Run MD

run 1000
  update every 1 steps, delay 0 steps, check yes
Step Temp PotEng Press f_avp[1] f_avp[2] f_avp[3] f_avp[4] f_avp[5] f_avp[6]
0    279.71172   -573.94049    14227.464            0            0            0            0            0            0
Averages over the last 6 of 11 rows, steps 500 to 1000:
Temp PotEng Press f_avp[1] f_avp[2] f_avp[3] f_avp[4] f_avp[5] f_avp[6]
314.112 -574.539 4096.81 13852.4 -3138.41 5515.33 5405.19 -2794.42 -3297.3
Loop time of 259.609 on 1 procs for 1000 steps with 88 atoms

include potential.mod
# NOTE: This script can be modified for different pair styles
# See in.elastic for more info.

# we must undefine any fix ave/* fix before using reset_timestep
if "$(is_defined(fix,avp))" then "unfix avp"
unfix avp
reset_timestep 0

newton off

# Choose potential
# pair_style	sw
# pair_coeff * * Si.sw Si
pair_style	nequip
pair_coeff	* * tob11_l3-deployed.pth Ca H O Si

atom_modify sort 0 0.0
#kspace_style	ewald 1.0e-6# Setup neighbor style

neighbor 2.0 bin
neigh_modify once no every 1 delay 0 check yes

# Setup output

fix avp all ave/time  10 10 100 c_thermo_press mode vector

#min_style cg
#minimize 1.0e-15 1.0e-15 100000 100000 #设置能量最小化

thermo		100
thermo_style custom step temp pe press f_avp[1] f_avp[2] f_avp[3] f_avp[4] f_avp[5] f_avp[6]
thermo_modify norm no

# Setup MD

timestep 0.001
fix 4 all nve
fix 5 all langevin 300 300 0.01 123457

run 300
Step Temp PotEng Press f_avp[1] f_avp[2] f_avp[3] f_avp[4] f_avp[5] f_avp[6]
0    356.55941   -574.66528   -7491.5733            0            0            0            0            0            0
Loop time of 82.2821 on 1 procs for 300 steps with 88 atoms

# Obtain new stress tensor

variable pxx1 equal f_avp[1]
variable pyy1 equal f_avp[2]
variable pzz1 equal f_avp[3]
variable pxy1 equal f_avp[4]
variable pxz1 equal f_avp[5]
variable pyz1 equal f_avp[6]

# Compute elastic constant from pressure tensor

variable C1neg equal -18.8841401305181
variable C2neg equal -14.4477133397662
variable C3neg equal -21.1472160886297
variable C4neg equal -8.62145123259238
variable C5neg equal 14.6717949967514
variable C6neg equal 53.0308381310587

# Reset box and simulation parameters

clear
box tilt large
read_restart restart.equil
Reading restart file ...
  restart file = 29 Sep 2021, LAMMPS = 29 Sep 2021
  restoring atom style atomic from restart
  triclinic box = (0.052500671 -0.067034418 -0.066498144) to (6.7511993 6.2518494 22.471945) with tilt (2.7531537 0.41001667 0.18248192)
  pair style nequip stores no restart info
  88 atoms
  read_restart CPU = 0.001 seconds
include potential.mod
# NOTE: This script can be modified for different pair styles
# See in.elastic for more info.

# we must undefine any fix ave/* fix before using reset_timestep
if "$(is_defined(fix,avp))" then "unfix avp"
reset_timestep 0

newton off

# Choose potential
# pair_style	sw
# pair_coeff * * Si.sw Si
pair_style	nequip
pair_coeff	* * tob11_l3-deployed.pth Ca H O Si

atom_modify sort 0 0.0
#kspace_style	ewald 1.0e-6# Setup neighbor style

neighbor 2.0 bin
neigh_modify once no every 1 delay 0 check yes

# Setup output

fix avp all ave/time  10 10 100 c_thermo_press mode vector

#min_style cg
#minimize 1.0e-15 1.0e-15 100000 100000 #设置能量最小化

thermo		100
thermo_style custom step temp pe press f_avp[1] f_avp[2] f_avp[3] f_avp[4] f_avp[5] f_avp[6]
thermo_modify norm no

# Setup MD

timestep 0.001
fix 4 all nve
fix 5 all langevin 300 300 0.01 123457

# Positive deformation

variable delta equal 0.02*6.31888381027747
variable deltaxy equal 0.02*xy
variable deltaxz equal 0.02*xz
variable deltayz equal 0.02*yz
change_box all xy delta 0.126377676205549 remap units box
Changing box ...
  triclinic box = (0.052500671 -0.067034418 -0.066498144) to (6.7511993 6.2518494 22.471945) with tilt (2.8795314 0.41001667 0.18248192)

# Run MD

run 1000
  update every 1 steps, delay 0 steps, check yes
Step Temp PotEng Press f_avp[1] f_avp[2] f_avp[3] f_avp[4] f_avp[5] f_avp[6]
0    279.71172   -573.91888    11661.467            0            0            0            0            0            0
Averages over the last 6 of 11 rows, steps 500 to 1000:
Temp PotEng Press f_avp[1] f_avp[2] f_avp[3] f_avp[4] f_avp[5] f_avp[6]
314.495 -574.492 8526.25 15955.2 3181.5 10455.2 -11529.5 -3251.01 -3281.02
Loop time of 256.035 on 1 procs for 1000 steps with 88 atoms

include potential.mod
# NOTE: This script can be modified for different pair styles
# See in.elastic for more info.

# we must undefine any fix ave/* fix before using reset_timestep
if "$(is_defined(fix,avp))" then "unfix avp"
unfix avp
reset_timestep 0

newton off

# Choose potential
# pair_style	sw
# pair_coeff * * Si.sw Si
pair_style	nequip
pair_coeff	* * tob11_l3-deployed.pth Ca H O Si

atom_modify sort 0 0.0
#kspace_style	ewald 1.0e-6# Setup neighbor style

neighbor 2.0 bin
neigh_modify once no every 1 delay 0 check yes

# Setup output

fix avp all ave/time  10 10 100 c_thermo_press mode vector

#min_style cg
#minimize 1.0e-15 1.0e-15 100000 100000 #设置能量最小化

thermo		100
thermo_style custom step temp pe press f_avp[1] f_avp[2] f_avp[3] f_avp[4] f_avp[5] f_avp[6]
thermo_modify norm no

# Setup MD

timestep 0.001
fix 4 all nve
fix 5 all langevin 300 300 0.01 123457

run 300
Step Temp PotEng Press f_avp[1] f_avp[2] f_avp[3] f_avp[4] f_avp[5] f_avp[6]
0     355.5709   -574.60315   -3424.5453            0            0            0            0            0            0
Loop time of 82.3039 on 1 procs for 300 steps with 88 atoms

# Obtain new stress tensor

variable pxx1 equal f_avp[1]
variable pyy1 equal f_avp[2]
variable pzz1 equal f_avp[3]
variable pxy1 equal f_avp[4]
variable pxz1 equal f_avp[5]
variable pyz1 equal f_avp[6]

# Compute elastic constant from pressure tensor

variable C1pos equal 15.0275932363846
variable C2pos equal -17.8605310612531
variable C3pos equal -5.47778255270217
variable C4pos equal 8.46352984610783
variable C5pos equal -15.6233054808105
variable C6pos equal 32.699952389919

# Combine positive and negative

variable C16 equal 0.5*(-18.8841401305181+15.0275932363846)
variable C26 equal 0.5*(-14.4477133397662+-17.8605310612531)
variable C36 equal 0.5*(-21.1472160886297+-5.47778255270217)
variable C46 equal 0.5*(-8.62145123259238+8.46352984610783)
variable C56 equal 0.5*(14.6717949967514+-15.6233054808105)
variable C66 equal 0.5*(53.0308381310587+32.699952389919)

# Delete dir to make sure it is not reused

variable dir delete

# Output final values

variable C11all equal 117.524082970862
variable C22all equal 112.82588912949
variable C33all equal 126.812289159092

variable C12all equal 0.5*(43.9206103027698+48.359586346937)
variable C13all equal 0.5*(33.3860122169418+30.110624228566)
variable C23all equal 0.5*(43.3088982690649+31.1247614063087)

variable C44all equal 30.903161335876
variable C55all equal 19.2087693793843
variable C66all equal 42.8653952604889

variable C14all equal 0.5*(2.47101055342425+-0.0636536961774752)
variable C15all equal 0.5*(0.0503406844082503+0.95988524843685)
variable C16all equal 0.5*(-1.92827344706675+-4.19726750678531)

variable C24all equal 0.5*(1.5972023809397+6.42167155592792)
variable C25all equal 0.5*(1.3590340807814+9.94363327645877)
variable C26all equal 0.5*(-16.1541222005096+-10.7784850552826)

variable C34all equal 0.5*(-4.14548160634405+-3.79565263733658)
variable C35all equal 0.5*(1.19952332183623+1.47462517760835)
variable C36all equal 0.5*(-13.3124993206659+-12.2910170806421)

variable C45all equal 0.5*(-9.50304155337893+-9.50590925487603)
variable C46all equal 0.5*(-0.0789606932422746+0.666267825895424)
variable C56all equal 0.5*(-0.47575524202955+-0.843988112042)

print "========================================="
=========================================
print "Components of the Elastic Constant Tensor"
Components of the Elastic Constant Tensor
print "========================================="
=========================================

Elastic Constant C11all = 117.524082970862 GPa
Elastic Constant C22all = 112.82588912949 GPa
Elastic Constant C33all = 126.812289159092 GPa

Elastic Constant C12all = 46.1400983248534 GPa
Elastic Constant C13all = 31.7483182227539 GPa
Elastic Constant C23all = 37.2168298376868 GPa

Elastic Constant C44all = 30.903161335876 GPa
Elastic Constant C55all = 19.2087693793843 GPa
Elastic Constant C66all = 42.8653952604889 GPa

Elastic Constant C14all = 1.20367842862339 GPa
Elastic Constant C15all = 0.50511296642255 GPa
Elastic Constant C16all = -3.06277047692603 GPa

Elastic Constant C24all = 4.00943696843381 GPa
Elastic Constant C25all = 5.65133367862009 GPa
Elastic Constant C26all = -13.4663036278961 GPa

Elastic Constant C34all = -3.97056712184031 GPa
Elastic Constant C35all = 1.33707424972229 GPa
Elastic Constant C36all = -12.801758200654 GPa

Elastic Constant C45all = -9.50447540412748 GPa
Elastic Constant C46all = 0.293653566326575 GPa
Elastic Constant C56all = -0.659871677035775 GPa

print " "

print "Cij tensor matrix"
Cij tensor matrix
print " "

write_restart restart2
System init for write_restart ...
