LAMMPS (2 Aug 2023 - Update 1)
Loaded 1 plugins from /home/zkm/anaconda3/envs/deepmd/lib/deepmd_lmp

units	metal
dimension 3
atom_style atomic
boundary        p p p

box tilt large

The 'box' command has been removed and will be ignored

read_data tob14_ref_deepmd.data
Reading data file ...
  triclinic box = (0 0 0) to (6.9541015 6.3530143 28.422936) with tilt (2.6303553 0.54033995 1.3928068)
  reading atoms ...
  104 atoms

#special_bonds lj/coul 0.0 0.0 1.0
#atom_modify sort 0 0.0

pair_style	deepmd tob14_deepmd_compress.pb
Summary of lammps deepmd module ...
  >>> Info of deepmd-kit:
  installed to:       /home/zkm/anaconda3/envs/deepmd
  source:             v2.2.7
  source branch:       HEAD
  source commit:      839f4fe7
  source commit at:   2023-10-27 21:10:24 +0800
  surpport model ver.:1.1
  build variant:      cuda
  build with tf inc:  /home/zkm/anaconda3/envs/deepmd/include;/home/zkm/anaconda3/envs/deepmd/include
  build with tf lib:  /home/zkm/anaconda3/envs/deepmd/lib/libtensorflow_cc.so
  set tf intra_op_parallelism_threads: 0
  set tf inter_op_parallelism_threads: 0
  >>> Info of lammps module:
  use deepmd-kit at:  /home/zkm/anaconda3/envs/deepmdpair_coeff	* * Ca Si O H
mass            1 40.079800
mass            2 28.08500
mass            3 15.9994
mass            4 1.00794

timestep 0.001

velocity all create 300 4928459 rot yes dist gaussian #温度初始化
min_style cg
minimize 1.0e-15 1.0e-15 100000 100000

CITE-CITE-CITE-CITE-CITE-CITE-CITE-CITE-CITE-CITE-CITE-CITE-CITE

Your simulation uses code contributions which should be cited:

- USER-DEEPMD package:

@article{Wang_ComputPhysCommun_2018_v228_p178,
  author = {Wang, Han and Zhang, Linfeng and Han, Jiequn and E, Weinan},
  doi = {10.1016/j.cpc.2018.03.016},
  url = {https://doi.org/10.1016/j.cpc.2018.03.016},
  year = 2018,
  month = {jul},
  publisher = {Elsevier {BV}},
  volume = 228,
  journal = {Comput. Phys. Commun.},
  title = {{DeePMD-kit: A deep learning package for many-body potential energy representation and molecular dynamics}},
  pages = {178--184}
}
@misc{Zeng_JChemPhys_2023_v159_p054801,
  title  = {{DeePMD-kit v2: A software package for deep potential models}},
  author =   {Jinzhe Zeng and Duo Zhang and Denghui Lu and Pinghui Mo and Zeyu Li
         and Yixiao Chen and Mari{\'a}n Rynik and Li'ang Huang and Ziyao Li and
         Shaochen Shi and Yingze Wang and Haotian Ye and Ping Tuo and Jiabin
         Yang and Ye Ding and Yifan Li and Davide Tisi and Qiyu Zeng and Han
         Bao and Yu Xia and Jiameng Huang and Koki Muraoka and Yibo Wang and
         Junhan Chang and Fengbo Yuan and Sigbj{\o}rn L{\o}land Bore and Chun
         Cai and Yinnian Lin and Bo Wang and Jiayan Xu and Jia-Xin Zhu and
         Chenxing Luo and Yuzhi Zhang and Rhys E A Goodall and Wenshuo Liang
         and Anurag Kumar Singh and Sikai Yao and Jingchao Zhang and Renata
         Wentzcovitch and Jiequn Han and Jie Liu and Weile Jia and Darrin M
         York and Weinan E and Roberto Car and Linfeng Zhang and Han Wang},
  journal =  {J. Chem. Phys.},
  volume =   159,
  issue =    5,
  year =    2023,
  pages  =   054801,
  doi =      {10.1063/5.0155600},
}

CITE-CITE-CITE-CITE-CITE-CITE-CITE-CITE-CITE-CITE-CITE-CITE-CITE

Generated 0 of 6 mixed pair_coeff terms from geometric mixing rule
Step          Temp          E_pair         E_mol          TotEng         Press
0   300           -655.95755      0             -651.96342     -42966.266
Loop time of 7.21731 on 1 procs for 532 steps with 104 atoms

Minimization stats:
  Stopping criterion = energy tolerance
  Energy initial, next-to-last, final =
  Force two-norm initial, final = 18.742849 6.1997286e-06
  Force max component initial, final = 4.1474401 1.5668706e-06
  Final line search alpha, max atom move = 1 1.5668706e-06
  Iterations, force evaluations = 532 1064

thermo 100
#thermo_style  custom step temp etotal cella cellb cellc cellalpha cellbeta cellgamma pxx pyy pzz
thermo_style  custom step temp press etotal lx ly lz xy yz xz pxx pyy pzz

fix 1 all npt temp 300.0 300.0 0.1 aniso 1.01325 1.01325 1.0

run 5000
Generated 0 of 6 mixed pair_coeff terms from geometric mixing rule
Step          Temp          Press          TotEng           Lx             Ly             Lz             Xy             Yz             Xz            Pxx            Pyy            Pzz
532   300           -31114.416     -660.01821      6.9541015      6.3530143      28.422936      2.6303553      1.3928068      0.54033995    -32851.737     -36919.462     -23572.048
Averages over the last 26 of 52 rows, steps 3100 to 5532:
Temp Press TotEng Lx Ly Lz Xy Yz Xz Pxx Pyy Pzz
291.572 1934 -657.501 6.75841 6.19143 28.4717 2.56346 1.3952 0.541268 4367.92 819.114 614.974
Loop time of 34.1561 on 1 procs for 5000 steps with 104 atoms

write_dump all custom output-tob14_ref.dump id type x y z fx fy fz

compute         rdf_nequip all rdf 400 1 3 1 3 1 3
fix             2 all ave/time 10 10 100 c_rdf_nequip[*] file tob14_Ref.rdf mode vector

run 5000
Generated 0 of 6 mixed pair_coeff terms from geometric mixing rule
Step          Temp          Press          TotEng           Lx             Ly             Lz             Xy             Yz             Xz            Pxx            Pyy            Pzz
5532   220.25601      7355.8613     -658.22477      6.7113628      6.234461       28.284216      2.5812703      1.3860091      0.53770279     12095.756      3581.1825      6390.6449
Averages over the last 26 of 52 rows, steps 8100 to 10532:
Temp Press TotEng Lx Ly Lz Xy Yz Xz Pxx Pyy Pzz
296.546 129.507 -657.088 6.77883 6.17845 28.5285 2.55808 1.39798 0.542347 1685.77 930.944 -2228.2
Loop time of 34.1392 on 1 procs for 5000 steps with 104 atoms
